
---------- Begin Simulation Statistics ----------
simSeconds                                   0.105704                       # Number of seconds simulated (Second)
simTicks                                 105703695000                       # Number of ticks simulated (Tick)
finalTick                                105703695000                       # Number of ticks from beginning of simulation (restored from checkpoints and never reset) (Tick)
simFreq                                  1000000000000                       # The number of ticks per simulated second ((Tick/Second))
hostSeconds                                     32.60                       # Real time elapsed on the host (Second)
hostTickRate                               3242588968                       # The number of ticks simulated per host second (ticks/s) ((Tick/Second))
hostMemory                                    2261280                       # Number of bytes of host memory used (Byte)
simInsts                                     10000000                       # Number of instructions simulated (Count)
simOps                                       23641205                       # Number of ops (including micro ops) simulated (Count)
hostInstRate                                   306761                       # Simulator instruction rate (inst/s) ((Count/Second))
hostOpRate                                     725220                       # Simulator op (including micro ops) rate (op/s) ((Count/Second))
system.clk_domain.clock                           500                       # Clock period in ticks (Tick)
system.clk_domain.voltage_domain.voltage            1                       # Voltage in Volts (Volt)
system.cpu.numCycles                        211407390                       # Number of cpu cycles simulated (Cycle)
system.cpu.cpi                              20.694846                       # CPI: cycles per instruction (core level) ((Cycle/Count))
system.cpu.ipc                               0.048321                       # IPC: instructions per cycle (core level) ((Count/Cycle))
system.cpu.numWorkItemsStarted                      0                       # Number of work items this cpu started (Count)
system.cpu.numWorkItemsCompleted                    0                       # Number of work items this cpu completed (Count)
system.cpu.commitStats0.numInsts             10215461                       # Number of instructions committed (thread level) (Count)
system.cpu.commitStats0.numOps               23856681                       # Number of ops (including micro ops) committed (thread level) (Count)
system.cpu.commitStats0.numInstsNotNOP              0                       # Number of instructions committed excluding NOPs or prefetches (Count)
system.cpu.commitStats0.numOpsNotNOP                0                       # Number of Ops (including micro ops) Simulated (Count)
system.cpu.commitStats0.cpi                 20.694846                       # CPI: cycles per instruction (thread level) ((Cycle/Count))
system.cpu.commitStats0.ipc                  0.048321                       # IPC: instructions per cycle (thread level) ((Count/Cycle))
system.cpu.commitStats0.numMemRefs                  0                       # Number of memory references committed (Count)
system.cpu.commitStats0.numFpInsts                  0                       # Number of float instructions (Count)
system.cpu.commitStats0.numIntInsts          21856676                       # Number of integer instructions (Count)
system.cpu.commitStats0.numLoadInsts          6546579                       # Number of load instructions (Count)
system.cpu.commitStats0.numStoreInsts        10170139                       # Number of store instructions (Count)
system.cpu.commitStats0.numVecInsts                 0                       # Number of vector instructions (Count)
system.cpu.commitStats0.committedInstType::No_OpClass            0      0.00%      0.00% # Class of committed instruction. (Count)
system.cpu.commitStats0.committedInstType::IntAlu      7139943     29.93%     29.93% # Class of committed instruction. (Count)
system.cpu.commitStats0.committedInstType::IntMult           17      0.00%     29.93% # Class of committed instruction. (Count)
system.cpu.commitStats0.committedInstType::IntDiv            0      0.00%     29.93% # Class of committed instruction. (Count)
system.cpu.commitStats0.committedInstType::FloatAdd            0      0.00%     29.93% # Class of committed instruction. (Count)
system.cpu.commitStats0.committedInstType::FloatCmp            0      0.00%     29.93% # Class of committed instruction. (Count)
system.cpu.commitStats0.committedInstType::FloatCvt            0      0.00%     29.93% # Class of committed instruction. (Count)
system.cpu.commitStats0.committedInstType::FloatMult            0      0.00%     29.93% # Class of committed instruction. (Count)
system.cpu.commitStats0.committedInstType::FloatMultAcc            0      0.00%     29.93% # Class of committed instruction. (Count)
system.cpu.commitStats0.committedInstType::FloatDiv            0      0.00%     29.93% # Class of committed instruction. (Count)
system.cpu.commitStats0.committedInstType::FloatMisc            0      0.00%     29.93% # Class of committed instruction. (Count)
system.cpu.commitStats0.committedInstType::FloatSqrt            0      0.00%     29.93% # Class of committed instruction. (Count)
system.cpu.commitStats0.committedInstType::SimdAdd            0      0.00%     29.93% # Class of committed instruction. (Count)
system.cpu.commitStats0.committedInstType::SimdAddAcc            0      0.00%     29.93% # Class of committed instruction. (Count)
system.cpu.commitStats0.committedInstType::SimdAlu            0      0.00%     29.93% # Class of committed instruction. (Count)
system.cpu.commitStats0.committedInstType::SimdCmp            0      0.00%     29.93% # Class of committed instruction. (Count)
system.cpu.commitStats0.committedInstType::SimdCvt            0      0.00%     29.93% # Class of committed instruction. (Count)
system.cpu.commitStats0.committedInstType::SimdMisc            0      0.00%     29.93% # Class of committed instruction. (Count)
system.cpu.commitStats0.committedInstType::SimdMult            0      0.00%     29.93% # Class of committed instruction. (Count)
system.cpu.commitStats0.committedInstType::SimdMultAcc            0      0.00%     29.93% # Class of committed instruction. (Count)
system.cpu.commitStats0.committedInstType::SimdMatMultAcc            0      0.00%     29.93% # Class of committed instruction. (Count)
system.cpu.commitStats0.committedInstType::SimdShift            0      0.00%     29.93% # Class of committed instruction. (Count)
system.cpu.commitStats0.committedInstType::SimdShiftAcc            0      0.00%     29.93% # Class of committed instruction. (Count)
system.cpu.commitStats0.committedInstType::SimdDiv            0      0.00%     29.93% # Class of committed instruction. (Count)
system.cpu.commitStats0.committedInstType::SimdSqrt            0      0.00%     29.93% # Class of committed instruction. (Count)
system.cpu.commitStats0.committedInstType::SimdFloatAdd            0      0.00%     29.93% # Class of committed instruction. (Count)
system.cpu.commitStats0.committedInstType::SimdFloatAlu            0      0.00%     29.93% # Class of committed instruction. (Count)
system.cpu.commitStats0.committedInstType::SimdFloatCmp            0      0.00%     29.93% # Class of committed instruction. (Count)
system.cpu.commitStats0.committedInstType::SimdFloatCvt            0      0.00%     29.93% # Class of committed instruction. (Count)
system.cpu.commitStats0.committedInstType::SimdFloatDiv            0      0.00%     29.93% # Class of committed instruction. (Count)
system.cpu.commitStats0.committedInstType::SimdFloatMisc            3      0.00%     29.93% # Class of committed instruction. (Count)
system.cpu.commitStats0.committedInstType::SimdFloatMult            0      0.00%     29.93% # Class of committed instruction. (Count)
system.cpu.commitStats0.committedInstType::SimdFloatMultAcc            0      0.00%     29.93% # Class of committed instruction. (Count)
system.cpu.commitStats0.committedInstType::SimdFloatMatMultAcc            0      0.00%     29.93% # Class of committed instruction. (Count)
system.cpu.commitStats0.committedInstType::SimdFloatSqrt            0      0.00%     29.93% # Class of committed instruction. (Count)
system.cpu.commitStats0.committedInstType::SimdReduceAdd            0      0.00%     29.93% # Class of committed instruction. (Count)
system.cpu.commitStats0.committedInstType::SimdReduceAlu            0      0.00%     29.93% # Class of committed instruction. (Count)
system.cpu.commitStats0.committedInstType::SimdReduceCmp            0      0.00%     29.93% # Class of committed instruction. (Count)
system.cpu.commitStats0.committedInstType::SimdFloatReduceAdd            0      0.00%     29.93% # Class of committed instruction. (Count)
system.cpu.commitStats0.committedInstType::SimdFloatReduceCmp            0      0.00%     29.93% # Class of committed instruction. (Count)
system.cpu.commitStats0.committedInstType::SimdAes            0      0.00%     29.93% # Class of committed instruction. (Count)
system.cpu.commitStats0.committedInstType::SimdAesMix            0      0.00%     29.93% # Class of committed instruction. (Count)
system.cpu.commitStats0.committedInstType::SimdSha1Hash            0      0.00%     29.93% # Class of committed instruction. (Count)
system.cpu.commitStats0.committedInstType::SimdSha1Hash2            0      0.00%     29.93% # Class of committed instruction. (Count)
system.cpu.commitStats0.committedInstType::SimdSha256Hash            0      0.00%     29.93% # Class of committed instruction. (Count)
system.cpu.commitStats0.committedInstType::SimdSha256Hash2            0      0.00%     29.93% # Class of committed instruction. (Count)
system.cpu.commitStats0.committedInstType::SimdShaSigma2            0      0.00%     29.93% # Class of committed instruction. (Count)
system.cpu.commitStats0.committedInstType::SimdShaSigma3            0      0.00%     29.93% # Class of committed instruction. (Count)
system.cpu.commitStats0.committedInstType::SimdPredAlu            0      0.00%     29.93% # Class of committed instruction. (Count)
system.cpu.commitStats0.committedInstType::Matrix            0      0.00%     29.93% # Class of committed instruction. (Count)
system.cpu.commitStats0.committedInstType::MatrixMov            0      0.00%     29.93% # Class of committed instruction. (Count)
system.cpu.commitStats0.committedInstType::MatrixOP            0      0.00%     29.93% # Class of committed instruction. (Count)
system.cpu.commitStats0.committedInstType::MemRead      6546579     27.44%     57.37% # Class of committed instruction. (Count)
system.cpu.commitStats0.committedInstType::MemWrite     10170139     42.63%    100.00% # Class of committed instruction. (Count)
system.cpu.commitStats0.committedInstType::FloatMemRead            0      0.00%    100.00% # Class of committed instruction. (Count)
system.cpu.commitStats0.committedInstType::FloatMemWrite            0      0.00%    100.00% # Class of committed instruction. (Count)
system.cpu.commitStats0.committedInstType::IprAccess            0      0.00%    100.00% # Class of committed instruction. (Count)
system.cpu.commitStats0.committedInstType::InstPrefetch            0      0.00%    100.00% # Class of committed instruction. (Count)
system.cpu.commitStats0.committedInstType::VectorUnitStrideLoad            0      0.00%    100.00% # Class of committed instruction. (Count)
system.cpu.commitStats0.committedInstType::VectorUnitStrideStore            0      0.00%    100.00% # Class of committed instruction. (Count)
system.cpu.commitStats0.committedInstType::VectorUnitStrideMaskLoad            0      0.00%    100.00% # Class of committed instruction. (Count)
system.cpu.commitStats0.committedInstType::VectorUnitStrideMaskStore            0      0.00%    100.00% # Class of committed instruction. (Count)
system.cpu.commitStats0.committedInstType::VectorStridedLoad            0      0.00%    100.00% # Class of committed instruction. (Count)
system.cpu.commitStats0.committedInstType::VectorStridedStore            0      0.00%    100.00% # Class of committed instruction. (Count)
system.cpu.commitStats0.committedInstType::VectorIndexedLoad            0      0.00%    100.00% # Class of committed instruction. (Count)
system.cpu.commitStats0.committedInstType::VectorIndexedStore            0      0.00%    100.00% # Class of committed instruction. (Count)
system.cpu.commitStats0.committedInstType::VectorUnitStrideFaultOnlyFirstLoad            0      0.00%    100.00% # Class of committed instruction. (Count)
system.cpu.commitStats0.committedInstType::VectorWholeRegisterLoad            0      0.00%    100.00% # Class of committed instruction. (Count)
system.cpu.commitStats0.committedInstType::VectorWholeRegisterStore            0      0.00%    100.00% # Class of committed instruction. (Count)
system.cpu.commitStats0.committedInstType::VectorIntegerArith            0      0.00%    100.00% # Class of committed instruction. (Count)
system.cpu.commitStats0.committedInstType::VectorFloatArith            0      0.00%    100.00% # Class of committed instruction. (Count)
system.cpu.commitStats0.committedInstType::VectorFloatConvert            0      0.00%    100.00% # Class of committed instruction. (Count)
system.cpu.commitStats0.committedInstType::VectorIntegerReduce            0      0.00%    100.00% # Class of committed instruction. (Count)
system.cpu.commitStats0.committedInstType::VectorFloatReduce            0      0.00%    100.00% # Class of committed instruction. (Count)
system.cpu.commitStats0.committedInstType::VectorMisc            0      0.00%    100.00% # Class of committed instruction. (Count)
system.cpu.commitStats0.committedInstType::VectorIntegerExtension            0      0.00%    100.00% # Class of committed instruction. (Count)
system.cpu.commitStats0.committedInstType::VectorConfig            0      0.00%    100.00% # Class of committed instruction. (Count)
system.cpu.commitStats0.committedInstType::total     23856681                       # Class of committed instruction. (Count)
system.cpu.commitStats0.committedControl::IsControl      2000732                       # Class of control type instructions committed (Count)
system.cpu.commitStats0.committedControl::IsDirectControl      2000148                       # Class of control type instructions committed (Count)
system.cpu.commitStats0.committedControl::IsIndirectControl          584                       # Class of control type instructions committed (Count)
system.cpu.commitStats0.committedControl::IsCondControl      1999977                       # Class of control type instructions committed (Count)
system.cpu.commitStats0.committedControl::IsUncondControl          755                       # Class of control type instructions committed (Count)
system.cpu.commitStats0.committedControl::IsCall          533                       # Class of control type instructions committed (Count)
system.cpu.commitStats0.committedControl::IsReturn          533                       # Class of control type instructions committed (Count)
system.cpu.dcache.demandHits::cpu.data       13898970                       # number of demand (read+write) hits (Count)
system.cpu.dcache.demandHits::total          13898970                       # number of demand (read+write) hits (Count)
system.cpu.dcache.overallHits::cpu.data      14070216                       # number of overall hits (Count)
system.cpu.dcache.overallHits::total         14070216                       # number of overall hits (Count)
system.cpu.dcache.demandMisses::cpu.data      1466044                       # number of demand (read+write) misses (Count)
system.cpu.dcache.demandMisses::total         1466044                       # number of demand (read+write) misses (Count)
system.cpu.dcache.overallMisses::cpu.data      2431407                       # number of overall misses (Count)
system.cpu.dcache.overallMisses::total        2431407                       # number of overall misses (Count)
system.cpu.dcache.demandMissLatency::cpu.data  79575058500                       # number of demand (read+write) miss ticks (Tick)
system.cpu.dcache.demandMissLatency::total  79575058500                       # number of demand (read+write) miss ticks (Tick)
system.cpu.dcache.overallMissLatency::cpu.data  79575058500                       # number of overall miss ticks (Tick)
system.cpu.dcache.overallMissLatency::total  79575058500                       # number of overall miss ticks (Tick)
system.cpu.dcache.demandAccesses::cpu.data     15365014                       # number of demand (read+write) accesses (Count)
system.cpu.dcache.demandAccesses::total      15365014                       # number of demand (read+write) accesses (Count)
system.cpu.dcache.overallAccesses::cpu.data     16501623                       # number of overall (read+write) accesses (Count)
system.cpu.dcache.overallAccesses::total     16501623                       # number of overall (read+write) accesses (Count)
system.cpu.dcache.demandMissRate::cpu.data     0.095414                       # miss rate for demand accesses (Ratio)
system.cpu.dcache.demandMissRate::total      0.095414                       # miss rate for demand accesses (Ratio)
system.cpu.dcache.overallMissRate::cpu.data     0.147344                       # miss rate for overall accesses (Ratio)
system.cpu.dcache.overallMissRate::total     0.147344                       # miss rate for overall accesses (Ratio)
system.cpu.dcache.demandAvgMissLatency::cpu.data 54278.765508                       # average overall miss latency in ticks ((Tick/Count))
system.cpu.dcache.demandAvgMissLatency::total 54278.765508                       # average overall miss latency in ticks ((Tick/Count))
system.cpu.dcache.overallAvgMissLatency::cpu.data 32727.987745                       # average overall miss latency ((Tick/Count))
system.cpu.dcache.overallAvgMissLatency::total 32727.987745                       # average overall miss latency ((Tick/Count))
system.cpu.dcache.blockedCycles::no_mshrs            0                       # number of cycles access was blocked (Cycle)
system.cpu.dcache.blockedCycles::no_targets            0                       # number of cycles access was blocked (Cycle)
system.cpu.dcache.blockedCauses::no_mshrs            0                       # number of times access was blocked (Count)
system.cpu.dcache.blockedCauses::no_targets            0                       # number of times access was blocked (Count)
system.cpu.dcache.avgBlocked::no_mshrs            nan                       # average number of cycles each access was blocked ((Cycle/Count))
system.cpu.dcache.avgBlocked::no_targets          nan                       # average number of cycles each access was blocked ((Cycle/Count))
system.cpu.dcache.writebacks::writebacks      1428276                       # number of writebacks (Count)
system.cpu.dcache.writebacks::total           1428276                       # number of writebacks (Count)
system.cpu.dcache.demandMshrHits::cpu.data        37428                       # number of demand (read+write) MSHR hits (Count)
system.cpu.dcache.demandMshrHits::total         37428                       # number of demand (read+write) MSHR hits (Count)
system.cpu.dcache.overallMshrHits::cpu.data        37428                       # number of overall MSHR hits (Count)
system.cpu.dcache.overallMshrHits::total        37428                       # number of overall MSHR hits (Count)
system.cpu.dcache.demandMshrMisses::cpu.data      1428616                       # number of demand (read+write) MSHR misses (Count)
system.cpu.dcache.demandMshrMisses::total      1428616                       # number of demand (read+write) MSHR misses (Count)
system.cpu.dcache.overallMshrMisses::cpu.data      1996921                       # number of overall MSHR misses (Count)
system.cpu.dcache.overallMshrMisses::total      1996921                       # number of overall MSHR misses (Count)
system.cpu.dcache.demandMshrMissLatency::cpu.data  75950599500                       # number of demand (read+write) MSHR miss ticks (Tick)
system.cpu.dcache.demandMshrMissLatency::total  75950599500                       # number of demand (read+write) MSHR miss ticks (Tick)
system.cpu.dcache.overallMshrMissLatency::cpu.data 108620243500                       # number of overall MSHR miss ticks (Tick)
system.cpu.dcache.overallMshrMissLatency::total 108620243500                       # number of overall MSHR miss ticks (Tick)
system.cpu.dcache.demandMshrMissRate::cpu.data     0.092979                       # mshr miss ratio for demand accesses (Ratio)
system.cpu.dcache.demandMshrMissRate::total     0.092979                       # mshr miss ratio for demand accesses (Ratio)
system.cpu.dcache.overallMshrMissRate::cpu.data     0.121014                       # mshr miss ratio for overall accesses (Ratio)
system.cpu.dcache.overallMshrMissRate::total     0.121014                       # mshr miss ratio for overall accesses (Ratio)
system.cpu.dcache.demandAvgMshrMissLatency::cpu.data 53163.760941                       # average overall mshr miss latency ((Tick/Count))
system.cpu.dcache.demandAvgMshrMissLatency::total 53163.760941                       # average overall mshr miss latency ((Tick/Count))
system.cpu.dcache.overallAvgMshrMissLatency::cpu.data 54393.861099                       # average overall mshr miss latency ((Tick/Count))
system.cpu.dcache.overallAvgMshrMissLatency::total 54393.861099                       # average overall mshr miss latency ((Tick/Count))
system.cpu.dcache.replacements                1996411                       # number of replacements (Count)
system.cpu.dcache.LoadLockedReq.hits::cpu.data           17                       # number of LoadLockedReq hits (Count)
system.cpu.dcache.LoadLockedReq.hits::total           17                       # number of LoadLockedReq hits (Count)
system.cpu.dcache.LoadLockedReq.misses::cpu.data            2                       # number of LoadLockedReq misses (Count)
system.cpu.dcache.LoadLockedReq.misses::total            2                       # number of LoadLockedReq misses (Count)
system.cpu.dcache.LoadLockedReq.missLatency::cpu.data       131000                       # number of LoadLockedReq miss ticks (Tick)
system.cpu.dcache.LoadLockedReq.missLatency::total       131000                       # number of LoadLockedReq miss ticks (Tick)
system.cpu.dcache.LoadLockedReq.accesses::cpu.data           19                       # number of LoadLockedReq accesses(hits+misses) (Count)
system.cpu.dcache.LoadLockedReq.accesses::total           19                       # number of LoadLockedReq accesses(hits+misses) (Count)
system.cpu.dcache.LoadLockedReq.missRate::cpu.data     0.105263                       # miss rate for LoadLockedReq accesses (Ratio)
system.cpu.dcache.LoadLockedReq.missRate::total     0.105263                       # miss rate for LoadLockedReq accesses (Ratio)
system.cpu.dcache.LoadLockedReq.avgMissLatency::cpu.data        65500                       # average LoadLockedReq miss latency ((Tick/Count))
system.cpu.dcache.LoadLockedReq.avgMissLatency::total        65500                       # average LoadLockedReq miss latency ((Tick/Count))
system.cpu.dcache.LoadLockedReq.mshrMisses::cpu.data            2                       # number of LoadLockedReq MSHR misses (Count)
system.cpu.dcache.LoadLockedReq.mshrMisses::total            2                       # number of LoadLockedReq MSHR misses (Count)
system.cpu.dcache.LoadLockedReq.mshrMissLatency::cpu.data       129000                       # number of LoadLockedReq MSHR miss ticks (Tick)
system.cpu.dcache.LoadLockedReq.mshrMissLatency::total       129000                       # number of LoadLockedReq MSHR miss ticks (Tick)
system.cpu.dcache.LoadLockedReq.mshrMissRate::cpu.data     0.105263                       # mshr miss rate for LoadLockedReq accesses (Ratio)
system.cpu.dcache.LoadLockedReq.mshrMissRate::total     0.105263                       # mshr miss rate for LoadLockedReq accesses (Ratio)
system.cpu.dcache.LoadLockedReq.avgMshrMissLatency::cpu.data        64500                       # average LoadLockedReq mshr miss latency ((Tick/Count))
system.cpu.dcache.LoadLockedReq.avgMshrMissLatency::total        64500                       # average LoadLockedReq mshr miss latency ((Tick/Count))
system.cpu.dcache.ReadReq.hits::cpu.data      5372413                       # number of ReadReq hits (Count)
system.cpu.dcache.ReadReq.hits::total         5372413                       # number of ReadReq hits (Count)
system.cpu.dcache.ReadReq.misses::cpu.data        37532                       # number of ReadReq misses (Count)
system.cpu.dcache.ReadReq.misses::total         37532                       # number of ReadReq misses (Count)
system.cpu.dcache.ReadReq.missLatency::cpu.data   2202794000                       # number of ReadReq miss ticks (Tick)
system.cpu.dcache.ReadReq.missLatency::total   2202794000                       # number of ReadReq miss ticks (Tick)
system.cpu.dcache.ReadReq.accesses::cpu.data      5409945                       # number of ReadReq accesses(hits+misses) (Count)
system.cpu.dcache.ReadReq.accesses::total      5409945                       # number of ReadReq accesses(hits+misses) (Count)
system.cpu.dcache.ReadReq.missRate::cpu.data     0.006938                       # miss rate for ReadReq accesses (Ratio)
system.cpu.dcache.ReadReq.missRate::total     0.006938                       # miss rate for ReadReq accesses (Ratio)
system.cpu.dcache.ReadReq.avgMissLatency::cpu.data 58691.090270                       # average ReadReq miss latency ((Tick/Count))
system.cpu.dcache.ReadReq.avgMissLatency::total 58691.090270                       # average ReadReq miss latency ((Tick/Count))
system.cpu.dcache.ReadReq.mshrHits::cpu.data        37428                       # number of ReadReq MSHR hits (Count)
system.cpu.dcache.ReadReq.mshrHits::total        37428                       # number of ReadReq MSHR hits (Count)
system.cpu.dcache.ReadReq.mshrMisses::cpu.data          104                       # number of ReadReq MSHR misses (Count)
system.cpu.dcache.ReadReq.mshrMisses::total          104                       # number of ReadReq MSHR misses (Count)
system.cpu.dcache.ReadReq.mshrMissLatency::cpu.data      6847000                       # number of ReadReq MSHR miss ticks (Tick)
system.cpu.dcache.ReadReq.mshrMissLatency::total      6847000                       # number of ReadReq MSHR miss ticks (Tick)
system.cpu.dcache.ReadReq.mshrMissRate::cpu.data     0.000019                       # mshr miss rate for ReadReq accesses (Ratio)
system.cpu.dcache.ReadReq.mshrMissRate::total     0.000019                       # mshr miss rate for ReadReq accesses (Ratio)
system.cpu.dcache.ReadReq.avgMshrMissLatency::cpu.data 65836.538462                       # average ReadReq mshr miss latency ((Tick/Count))
system.cpu.dcache.ReadReq.avgMshrMissLatency::total 65836.538462                       # average ReadReq mshr miss latency ((Tick/Count))
system.cpu.dcache.SoftPFReq.hits::cpu.data       171246                       # number of SoftPFReq hits (Count)
system.cpu.dcache.SoftPFReq.hits::total        171246                       # number of SoftPFReq hits (Count)
system.cpu.dcache.SoftPFReq.misses::cpu.data       965363                       # number of SoftPFReq misses (Count)
system.cpu.dcache.SoftPFReq.misses::total       965363                       # number of SoftPFReq misses (Count)
system.cpu.dcache.SoftPFReq.accesses::cpu.data      1136609                       # number of SoftPFReq accesses(hits+misses) (Count)
system.cpu.dcache.SoftPFReq.accesses::total      1136609                       # number of SoftPFReq accesses(hits+misses) (Count)
system.cpu.dcache.SoftPFReq.missRate::cpu.data     0.849336                       # miss rate for SoftPFReq accesses (Ratio)
system.cpu.dcache.SoftPFReq.missRate::total     0.849336                       # miss rate for SoftPFReq accesses (Ratio)
system.cpu.dcache.SoftPFReq.mshrMisses::cpu.data       568305                       # number of SoftPFReq MSHR misses (Count)
system.cpu.dcache.SoftPFReq.mshrMisses::total       568305                       # number of SoftPFReq MSHR misses (Count)
system.cpu.dcache.SoftPFReq.mshrMissLatency::cpu.data  32669644000                       # number of SoftPFReq MSHR miss ticks (Tick)
system.cpu.dcache.SoftPFReq.mshrMissLatency::total  32669644000                       # number of SoftPFReq MSHR miss ticks (Tick)
system.cpu.dcache.SoftPFReq.mshrMissRate::cpu.data     0.500000                       # mshr miss rate for SoftPFReq accesses (Ratio)
system.cpu.dcache.SoftPFReq.mshrMissRate::total     0.500000                       # mshr miss rate for SoftPFReq accesses (Ratio)
system.cpu.dcache.SoftPFReq.avgMshrMissLatency::cpu.data 57486.110451                       # average SoftPFReq mshr miss latency ((Tick/Count))
system.cpu.dcache.SoftPFReq.avgMshrMissLatency::total 57486.110451                       # average SoftPFReq mshr miss latency ((Tick/Count))
system.cpu.dcache.StoreCondReq.hits::cpu.data           19                       # number of StoreCondReq hits (Count)
system.cpu.dcache.StoreCondReq.hits::total           19                       # number of StoreCondReq hits (Count)
system.cpu.dcache.StoreCondReq.accesses::cpu.data           19                       # number of StoreCondReq accesses(hits+misses) (Count)
system.cpu.dcache.StoreCondReq.accesses::total           19                       # number of StoreCondReq accesses(hits+misses) (Count)
system.cpu.dcache.WriteReq.hits::cpu.data      8526557                       # number of WriteReq hits (Count)
system.cpu.dcache.WriteReq.hits::total        8526557                       # number of WriteReq hits (Count)
system.cpu.dcache.WriteReq.misses::cpu.data      1428512                       # number of WriteReq misses (Count)
system.cpu.dcache.WriteReq.misses::total      1428512                       # number of WriteReq misses (Count)
system.cpu.dcache.WriteReq.missLatency::cpu.data  77372264500                       # number of WriteReq miss ticks (Tick)
system.cpu.dcache.WriteReq.missLatency::total  77372264500                       # number of WriteReq miss ticks (Tick)
system.cpu.dcache.WriteReq.accesses::cpu.data      9955069                       # number of WriteReq accesses(hits+misses) (Count)
system.cpu.dcache.WriteReq.accesses::total      9955069                       # number of WriteReq accesses(hits+misses) (Count)
system.cpu.dcache.WriteReq.missRate::cpu.data     0.143496                       # miss rate for WriteReq accesses (Ratio)
system.cpu.dcache.WriteReq.missRate::total     0.143496                       # miss rate for WriteReq accesses (Ratio)
system.cpu.dcache.WriteReq.avgMissLatency::cpu.data 54162.838324                       # average WriteReq miss latency ((Tick/Count))
system.cpu.dcache.WriteReq.avgMissLatency::total 54162.838324                       # average WriteReq miss latency ((Tick/Count))
system.cpu.dcache.WriteReq.mshrMisses::cpu.data      1428512                       # number of WriteReq MSHR misses (Count)
system.cpu.dcache.WriteReq.mshrMisses::total      1428512                       # number of WriteReq MSHR misses (Count)
system.cpu.dcache.WriteReq.mshrMissLatency::cpu.data  75943752500                       # number of WriteReq MSHR miss ticks (Tick)
system.cpu.dcache.WriteReq.mshrMissLatency::total  75943752500                       # number of WriteReq MSHR miss ticks (Tick)
system.cpu.dcache.WriteReq.mshrMissRate::cpu.data     0.143496                       # mshr miss rate for WriteReq accesses (Ratio)
system.cpu.dcache.WriteReq.mshrMissRate::total     0.143496                       # mshr miss rate for WriteReq accesses (Ratio)
system.cpu.dcache.WriteReq.avgMshrMissLatency::cpu.data 53162.838324                       # average WriteReq mshr miss latency ((Tick/Count))
system.cpu.dcache.WriteReq.avgMshrMissLatency::total 53162.838324                       # average WriteReq mshr miss latency ((Tick/Count))
system.cpu.dcache.power_state.pwrStateResidencyTicks::UNDEFINED 105703695000                       # Cumulative time (in ticks) in various power states (Tick)
system.cpu.dcache.tags.tagsInUse           312.836839                       # Average ticks per tags in use ((Tick/Count))
system.cpu.dcache.tags.totalRefs             16067175                       # Total number of references to valid blocks. (Count)
system.cpu.dcache.tags.sampledRefs            1996923                       # Sample count of references to valid blocks. (Count)
system.cpu.dcache.tags.avgRefs               8.045966                       # Average number of references to valid blocks. ((Count/Count))
system.cpu.dcache.tags.warmupTick              163500                       # The tick when the warmup percentage was hit. (Tick)
system.cpu.dcache.tags.occupancies::cpu.data   312.836839                       # Average occupied blocks per tick, per requestor ((Count/Tick))
system.cpu.dcache.tags.avgOccs::cpu.data     0.611009                       # Average percentage of cache occupancy ((Ratio/Tick))
system.cpu.dcache.tags.avgOccs::total        0.611009                       # Average percentage of cache occupancy ((Ratio/Tick))
system.cpu.dcache.tags.occupanciesTaskId::1024          512                       # Occupied blocks per task id (Count)
system.cpu.dcache.tags.ageTaskId_1024::0          239                       # Occupied blocks per task id, per block age (Count)
system.cpu.dcache.tags.ageTaskId_1024::1          273                       # Occupied blocks per task id, per block age (Count)
system.cpu.dcache.tags.ratioOccsTaskId::1024            1                       # Ratio of occupied blocks and all blocks, per task id (Ratio)
system.cpu.dcache.tags.tagAccesses           35000245                       # Number of tag accesses (Count)
system.cpu.dcache.tags.dataAccesses          35000245                       # Number of data accesses (Count)
system.cpu.dcache.tags.power_state.pwrStateResidencyTicks::UNDEFINED 105703695000                       # Cumulative time (in ticks) in various power states (Tick)
system.cpu.exec_context.thread_0.numMatAluAccesses            0                       # Number of matrix alu accesses (Count)
system.cpu.exec_context.thread_0.numCallsReturns         1066                       # Number of times a function call or return occured (Count)
system.cpu.exec_context.thread_0.numMatInsts            0                       # Number of matrix instructions (Count)
system.cpu.exec_context.thread_0.numIdleCycles            0                       # Number of idle cycles (Cycle)
system.cpu.exec_context.thread_0.numBusyCycles    211407390                       # Number of busy cycles (Cycle)
system.cpu.exec_context.thread_0.notIdleFraction            1                       # Percentage of non-idle cycles (Ratio)
system.cpu.exec_context.thread_0.idleFraction            0                       # Percentage of idle cycles (Ratio)
system.cpu.executeStats0.numInsts                   0                       # Number of executed instructions (Count)
system.cpu.executeStats0.numNop                     0                       # Number of nop insts executed (Count)
system.cpu.executeStats0.numBranches                0                       # Number of branches executed (Count)
system.cpu.executeStats0.numLoadInsts               0                       # Number of load instructions executed (Count)
system.cpu.executeStats0.numStoreInsts       16716718                       # Number of stores executed (Count)
system.cpu.executeStats0.instRate                   0                       # Inst execution rate ((Count/Cycle))
system.cpu.executeStats0.numFpRegWrites             0                       # Number of times the floating registers were written (Count)
system.cpu.executeStats0.numIntAluAccesses     21856676                       # Number of integer alu accesses (Count)
system.cpu.executeStats0.numIntRegReads      33962396                       # Number of times the integer registers were read (Count)
system.cpu.executeStats0.numIntRegWrites     14232928                       # Number of times the integer registers were written (Count)
system.cpu.executeStats0.numMemRefs          16716718                       # Number of memory refs (Count)
system.cpu.executeStats0.numMiscRegReads     15580179                       # Number of times the Misc registers were read (Count)
system.cpu.executeStats0.numMiscRegWrites           39                       # Number of times the Misc registers were written (Count)
system.cpu.executeStats0.numVecAluAccesses            0                       # Number of vector alu accesses (Count)
system.cpu.executeStats0.numVecRegReads            16                       # Number of times the vector registers were read (Count)
system.cpu.executeStats0.numDiscardedOps            0                       # Number of ops (including micro ops) which were discarded before commit (Count)
system.cpu.fetchStats0.numInsts              10215461                       # Number of instructions fetched (thread level) (Count)
system.cpu.fetchStats0.numOps                23856681                       # Number of ops (including micro ops) fetched (thread level) (Count)
system.cpu.fetchStats0.fetchRate             0.048321                       # Number of inst fetches per cycle ((Count/Cycle))
system.cpu.fetchStats0.numBranches            2000732                       # Number of branches fetched (Count)
system.cpu.fetchStats0.branchRate            0.009464                       # Number of branch fetches per cycle (Ratio)
system.cpu.fetchStats0.numFetchSuspends             0                       # Number of times Execute suspended instruction fetching (Count)
system.cpu.icache.demandHits::cpu.inst       11076738                       # number of demand (read+write) hits (Count)
system.cpu.icache.demandHits::total          11076738                       # number of demand (read+write) hits (Count)
system.cpu.icache.overallHits::cpu.inst      11076738                       # number of overall hits (Count)
system.cpu.icache.overallHits::total         11076738                       # number of overall hits (Count)
system.cpu.icache.demandMisses::cpu.inst          244                       # number of demand (read+write) misses (Count)
system.cpu.icache.demandMisses::total             244                       # number of demand (read+write) misses (Count)
system.cpu.icache.overallMisses::cpu.inst          244                       # number of overall misses (Count)
system.cpu.icache.overallMisses::total            244                       # number of overall misses (Count)
system.cpu.icache.demandMissLatency::cpu.inst     16122500                       # number of demand (read+write) miss ticks (Tick)
system.cpu.icache.demandMissLatency::total     16122500                       # number of demand (read+write) miss ticks (Tick)
system.cpu.icache.overallMissLatency::cpu.inst     16122500                       # number of overall miss ticks (Tick)
system.cpu.icache.overallMissLatency::total     16122500                       # number of overall miss ticks (Tick)
system.cpu.icache.demandAccesses::cpu.inst     11076982                       # number of demand (read+write) accesses (Count)
system.cpu.icache.demandAccesses::total      11076982                       # number of demand (read+write) accesses (Count)
system.cpu.icache.overallAccesses::cpu.inst     11076982                       # number of overall (read+write) accesses (Count)
system.cpu.icache.overallAccesses::total     11076982                       # number of overall (read+write) accesses (Count)
system.cpu.icache.demandMissRate::cpu.inst     0.000022                       # miss rate for demand accesses (Ratio)
system.cpu.icache.demandMissRate::total      0.000022                       # miss rate for demand accesses (Ratio)
system.cpu.icache.overallMissRate::cpu.inst     0.000022                       # miss rate for overall accesses (Ratio)
system.cpu.icache.overallMissRate::total     0.000022                       # miss rate for overall accesses (Ratio)
system.cpu.icache.demandAvgMissLatency::cpu.inst 66075.819672                       # average overall miss latency in ticks ((Tick/Count))
system.cpu.icache.demandAvgMissLatency::total 66075.819672                       # average overall miss latency in ticks ((Tick/Count))
system.cpu.icache.overallAvgMissLatency::cpu.inst 66075.819672                       # average overall miss latency ((Tick/Count))
system.cpu.icache.overallAvgMissLatency::total 66075.819672                       # average overall miss latency ((Tick/Count))
system.cpu.icache.blockedCycles::no_mshrs            0                       # number of cycles access was blocked (Cycle)
system.cpu.icache.blockedCycles::no_targets            0                       # number of cycles access was blocked (Cycle)
system.cpu.icache.blockedCauses::no_mshrs            0                       # number of times access was blocked (Count)
system.cpu.icache.blockedCauses::no_targets            0                       # number of times access was blocked (Count)
system.cpu.icache.avgBlocked::no_mshrs            nan                       # average number of cycles each access was blocked ((Cycle/Count))
system.cpu.icache.avgBlocked::no_targets          nan                       # average number of cycles each access was blocked ((Cycle/Count))
system.cpu.icache.demandMshrMisses::cpu.inst          244                       # number of demand (read+write) MSHR misses (Count)
system.cpu.icache.demandMshrMisses::total          244                       # number of demand (read+write) MSHR misses (Count)
system.cpu.icache.overallMshrMisses::cpu.inst          244                       # number of overall MSHR misses (Count)
system.cpu.icache.overallMshrMisses::total          244                       # number of overall MSHR misses (Count)
system.cpu.icache.demandMshrMissLatency::cpu.inst     15878500                       # number of demand (read+write) MSHR miss ticks (Tick)
system.cpu.icache.demandMshrMissLatency::total     15878500                       # number of demand (read+write) MSHR miss ticks (Tick)
system.cpu.icache.overallMshrMissLatency::cpu.inst     15878500                       # number of overall MSHR miss ticks (Tick)
system.cpu.icache.overallMshrMissLatency::total     15878500                       # number of overall MSHR miss ticks (Tick)
system.cpu.icache.demandMshrMissRate::cpu.inst     0.000022                       # mshr miss ratio for demand accesses (Ratio)
system.cpu.icache.demandMshrMissRate::total     0.000022                       # mshr miss ratio for demand accesses (Ratio)
system.cpu.icache.overallMshrMissRate::cpu.inst     0.000022                       # mshr miss ratio for overall accesses (Ratio)
system.cpu.icache.overallMshrMissRate::total     0.000022                       # mshr miss ratio for overall accesses (Ratio)
system.cpu.icache.demandAvgMshrMissLatency::cpu.inst 65075.819672                       # average overall mshr miss latency ((Tick/Count))
system.cpu.icache.demandAvgMshrMissLatency::total 65075.819672                       # average overall mshr miss latency ((Tick/Count))
system.cpu.icache.overallAvgMshrMissLatency::cpu.inst 65075.819672                       # average overall mshr miss latency ((Tick/Count))
system.cpu.icache.overallAvgMshrMissLatency::total 65075.819672                       # average overall mshr miss latency ((Tick/Count))
system.cpu.icache.replacements                     32                       # number of replacements (Count)
system.cpu.icache.ReadReq.hits::cpu.inst     11076738                       # number of ReadReq hits (Count)
system.cpu.icache.ReadReq.hits::total        11076738                       # number of ReadReq hits (Count)
system.cpu.icache.ReadReq.misses::cpu.inst          244                       # number of ReadReq misses (Count)
system.cpu.icache.ReadReq.misses::total           244                       # number of ReadReq misses (Count)
system.cpu.icache.ReadReq.missLatency::cpu.inst     16122500                       # number of ReadReq miss ticks (Tick)
system.cpu.icache.ReadReq.missLatency::total     16122500                       # number of ReadReq miss ticks (Tick)
system.cpu.icache.ReadReq.accesses::cpu.inst     11076982                       # number of ReadReq accesses(hits+misses) (Count)
system.cpu.icache.ReadReq.accesses::total     11076982                       # number of ReadReq accesses(hits+misses) (Count)
system.cpu.icache.ReadReq.missRate::cpu.inst     0.000022                       # miss rate for ReadReq accesses (Ratio)
system.cpu.icache.ReadReq.missRate::total     0.000022                       # miss rate for ReadReq accesses (Ratio)
system.cpu.icache.ReadReq.avgMissLatency::cpu.inst 66075.819672                       # average ReadReq miss latency ((Tick/Count))
system.cpu.icache.ReadReq.avgMissLatency::total 66075.819672                       # average ReadReq miss latency ((Tick/Count))
system.cpu.icache.ReadReq.mshrMisses::cpu.inst          244                       # number of ReadReq MSHR misses (Count)
system.cpu.icache.ReadReq.mshrMisses::total          244                       # number of ReadReq MSHR misses (Count)
system.cpu.icache.ReadReq.mshrMissLatency::cpu.inst     15878500                       # number of ReadReq MSHR miss ticks (Tick)
system.cpu.icache.ReadReq.mshrMissLatency::total     15878500                       # number of ReadReq MSHR miss ticks (Tick)
system.cpu.icache.ReadReq.mshrMissRate::cpu.inst     0.000022                       # mshr miss rate for ReadReq accesses (Ratio)
system.cpu.icache.ReadReq.mshrMissRate::total     0.000022                       # mshr miss rate for ReadReq accesses (Ratio)
system.cpu.icache.ReadReq.avgMshrMissLatency::cpu.inst 65075.819672                       # average ReadReq mshr miss latency ((Tick/Count))
system.cpu.icache.ReadReq.avgMshrMissLatency::total 65075.819672                       # average ReadReq mshr miss latency ((Tick/Count))
system.cpu.icache.power_state.pwrStateResidencyTicks::UNDEFINED 105703695000                       # Cumulative time (in ticks) in various power states (Tick)
system.cpu.icache.tags.tagsInUse           188.750234                       # Average ticks per tags in use ((Tick/Count))
system.cpu.icache.tags.totalRefs             11076982                       # Total number of references to valid blocks. (Count)
system.cpu.icache.tags.sampledRefs                244                       # Sample count of references to valid blocks. (Count)
system.cpu.icache.tags.avgRefs           45397.467213                       # Average number of references to valid blocks. ((Count/Count))
system.cpu.icache.tags.warmupTick               81500                       # The tick when the warmup percentage was hit. (Tick)
system.cpu.icache.tags.occupancies::cpu.inst   188.750234                       # Average occupied blocks per tick, per requestor ((Count/Tick))
system.cpu.icache.tags.avgOccs::cpu.inst     0.368653                       # Average percentage of cache occupancy ((Ratio/Tick))
system.cpu.icache.tags.avgOccs::total        0.368653                       # Average percentage of cache occupancy ((Ratio/Tick))
system.cpu.icache.tags.occupanciesTaskId::1024          212                       # Occupied blocks per task id (Count)
system.cpu.icache.tags.ageTaskId_1024::4          212                       # Occupied blocks per task id, per block age (Count)
system.cpu.icache.tags.ratioOccsTaskId::1024     0.414062                       # Ratio of occupied blocks and all blocks, per task id (Ratio)
system.cpu.icache.tags.tagAccesses           22154208                       # Number of tag accesses (Count)
system.cpu.icache.tags.dataAccesses          22154208                       # Number of data accesses (Count)
system.cpu.icache.tags.power_state.pwrStateResidencyTicks::UNDEFINED 105703695000                       # Cumulative time (in ticks) in various power states (Tick)
system.cpu.mmu.alignFaults                          0                       # Number of MMU faults due to alignment restrictions (Count)
system.cpu.mmu.prefetchFaults                       0                       # Number of MMU faults due to prefetch (Count)
system.cpu.mmu.domainFaults                         0                       # Number of MMU faults due to domain restrictions (Count)
system.cpu.mmu.permsFaults                          0                       # Number of MMU faults due to permissions restrictions (Count)
system.cpu.mmu.dtb.readHits                         0                       # Read hits (Count)
system.cpu.mmu.dtb.readMisses                       0                       # Read misses (Count)
system.cpu.mmu.dtb.writeHits                        0                       # Write hits (Count)
system.cpu.mmu.dtb.writeMisses                      0                       # Write misses (Count)
system.cpu.mmu.dtb.inserts                          0                       # Number of times an entry is inserted into the TLB (Count)
system.cpu.mmu.dtb.flushTlb                         0                       # Number of times a TLB invalidation was requested (Count)
system.cpu.mmu.dtb.flushedEntries                   0                       # Number of entries that have been flushed from TLB (Count)
system.cpu.mmu.dtb.readAccesses                     0                       # Read accesses (Count)
system.cpu.mmu.dtb.writeAccesses                    0                       # Write accesses (Count)
system.cpu.mmu.dtb.hits                             0                       # Total TLB (inst and data) hits (Count)
system.cpu.mmu.dtb.misses                           0                       # Total TLB (inst and data) misses (Count)
system.cpu.mmu.dtb.accesses                         0                       # Total TLB (inst and data) accesses (Count)
system.cpu.mmu.dtb_walker.walks                     0                       # Table walker walks requested (Count)
system.cpu.mmu.dtb_walker.requestOrigin_Requested::Data            0                       # Table walker requests started/completed, data/inst (Count)
system.cpu.mmu.dtb_walker.requestOrigin_Requested::Inst            0                       # Table walker requests started/completed, data/inst (Count)
system.cpu.mmu.dtb_walker.requestOrigin_Requested::total            0                       # Table walker requests started/completed, data/inst (Count)
system.cpu.mmu.dtb_walker.requestOrigin_Completed::Data            0                       # Table walker requests started/completed, data/inst (Count)
system.cpu.mmu.dtb_walker.requestOrigin_Completed::Inst            0                       # Table walker requests started/completed, data/inst (Count)
system.cpu.mmu.dtb_walker.requestOrigin_Completed::total            0                       # Table walker requests started/completed, data/inst (Count)
system.cpu.mmu.dtb_walker.requestOrigin::total            0                       # Table walker requests started/completed, data/inst (Count)
system.cpu.mmu.dtb_walker.power_state.pwrStateResidencyTicks::UNDEFINED 105703695000                       # Cumulative time (in ticks) in various power states (Tick)
system.cpu.mmu.itb.instHits                         0                       # Inst hits (Count)
system.cpu.mmu.itb.instMisses                       0                       # Inst misses (Count)
system.cpu.mmu.itb.inserts                          0                       # Number of times an entry is inserted into the TLB (Count)
system.cpu.mmu.itb.flushTlb                         0                       # Number of times a TLB invalidation was requested (Count)
system.cpu.mmu.itb.flushedEntries                   0                       # Number of entries that have been flushed from TLB (Count)
system.cpu.mmu.itb.instAccesses                     0                       # Inst accesses (Count)
system.cpu.mmu.itb.hits                             0                       # Total TLB (inst and data) hits (Count)
system.cpu.mmu.itb.misses                           0                       # Total TLB (inst and data) misses (Count)
system.cpu.mmu.itb.accesses                         0                       # Total TLB (inst and data) accesses (Count)
system.cpu.mmu.itb_walker.walks                     0                       # Table walker walks requested (Count)
system.cpu.mmu.itb_walker.requestOrigin_Requested::Data            0                       # Table walker requests started/completed, data/inst (Count)
system.cpu.mmu.itb_walker.requestOrigin_Requested::Inst            0                       # Table walker requests started/completed, data/inst (Count)
system.cpu.mmu.itb_walker.requestOrigin_Requested::total            0                       # Table walker requests started/completed, data/inst (Count)
system.cpu.mmu.itb_walker.requestOrigin_Completed::Data            0                       # Table walker requests started/completed, data/inst (Count)
system.cpu.mmu.itb_walker.requestOrigin_Completed::Inst            0                       # Table walker requests started/completed, data/inst (Count)
system.cpu.mmu.itb_walker.requestOrigin_Completed::total            0                       # Table walker requests started/completed, data/inst (Count)
system.cpu.mmu.itb_walker.requestOrigin::total            0                       # Table walker requests started/completed, data/inst (Count)
system.cpu.mmu.itb_walker.power_state.pwrStateResidencyTicks::UNDEFINED 105703695000                       # Cumulative time (in ticks) in various power states (Tick)
system.cpu.mmu.l2_shared.instHits                   0                       # Inst hits (Count)
system.cpu.mmu.l2_shared.instMisses                 0                       # Inst misses (Count)
system.cpu.mmu.l2_shared.inserts                    0                       # Number of times an entry is inserted into the TLB (Count)
system.cpu.mmu.l2_shared.flushTlb                   0                       # Number of times a TLB invalidation was requested (Count)
system.cpu.mmu.l2_shared.flushedEntries             0                       # Number of entries that have been flushed from TLB (Count)
system.cpu.mmu.l2_shared.instAccesses               0                       # Inst accesses (Count)
system.cpu.mmu.l2_shared.hits                       0                       # Total TLB (inst and data) hits (Count)
system.cpu.mmu.l2_shared.misses                     0                       # Total TLB (inst and data) misses (Count)
system.cpu.mmu.l2_shared.accesses                   0                       # Total TLB (inst and data) accesses (Count)
system.cpu.mmu.stage2_dtb.readHits                  0                       # Read hits (Count)
system.cpu.mmu.stage2_dtb.readMisses                0                       # Read misses (Count)
system.cpu.mmu.stage2_dtb.writeHits                 0                       # Write hits (Count)
system.cpu.mmu.stage2_dtb.writeMisses               0                       # Write misses (Count)
system.cpu.mmu.stage2_dtb.inserts                   0                       # Number of times an entry is inserted into the TLB (Count)
system.cpu.mmu.stage2_dtb.flushTlb                  0                       # Number of times a TLB invalidation was requested (Count)
system.cpu.mmu.stage2_dtb.flushedEntries            0                       # Number of entries that have been flushed from TLB (Count)
system.cpu.mmu.stage2_dtb.readAccesses              0                       # Read accesses (Count)
system.cpu.mmu.stage2_dtb.writeAccesses             0                       # Write accesses (Count)
system.cpu.mmu.stage2_dtb.hits                      0                       # Total TLB (inst and data) hits (Count)
system.cpu.mmu.stage2_dtb.misses                    0                       # Total TLB (inst and data) misses (Count)
system.cpu.mmu.stage2_dtb.accesses                  0                       # Total TLB (inst and data) accesses (Count)
system.cpu.mmu.stage2_dtb_walker.walks              0                       # Table walker walks requested (Count)
system.cpu.mmu.stage2_dtb_walker.requestOrigin_Requested::Data            0                       # Table walker requests started/completed, data/inst (Count)
system.cpu.mmu.stage2_dtb_walker.requestOrigin_Requested::Inst            0                       # Table walker requests started/completed, data/inst (Count)
system.cpu.mmu.stage2_dtb_walker.requestOrigin_Requested::total            0                       # Table walker requests started/completed, data/inst (Count)
system.cpu.mmu.stage2_dtb_walker.requestOrigin_Completed::Data            0                       # Table walker requests started/completed, data/inst (Count)
system.cpu.mmu.stage2_dtb_walker.requestOrigin_Completed::Inst            0                       # Table walker requests started/completed, data/inst (Count)
system.cpu.mmu.stage2_dtb_walker.requestOrigin_Completed::total            0                       # Table walker requests started/completed, data/inst (Count)
system.cpu.mmu.stage2_dtb_walker.requestOrigin::total            0                       # Table walker requests started/completed, data/inst (Count)
system.cpu.mmu.stage2_dtb_walker.power_state.pwrStateResidencyTicks::UNDEFINED 105703695000                       # Cumulative time (in ticks) in various power states (Tick)
system.cpu.mmu.stage2_itb.instHits                  0                       # Inst hits (Count)
system.cpu.mmu.stage2_itb.instMisses                0                       # Inst misses (Count)
system.cpu.mmu.stage2_itb.inserts                   0                       # Number of times an entry is inserted into the TLB (Count)
system.cpu.mmu.stage2_itb.flushTlb                  0                       # Number of times a TLB invalidation was requested (Count)
system.cpu.mmu.stage2_itb.flushedEntries            0                       # Number of entries that have been flushed from TLB (Count)
system.cpu.mmu.stage2_itb.instAccesses              0                       # Inst accesses (Count)
system.cpu.mmu.stage2_itb.hits                      0                       # Total TLB (inst and data) hits (Count)
system.cpu.mmu.stage2_itb.misses                    0                       # Total TLB (inst and data) misses (Count)
system.cpu.mmu.stage2_itb.accesses                  0                       # Total TLB (inst and data) accesses (Count)
system.cpu.mmu.stage2_itb_walker.walks              0                       # Table walker walks requested (Count)
system.cpu.mmu.stage2_itb_walker.requestOrigin_Requested::Data            0                       # Table walker requests started/completed, data/inst (Count)
system.cpu.mmu.stage2_itb_walker.requestOrigin_Requested::Inst            0                       # Table walker requests started/completed, data/inst (Count)
system.cpu.mmu.stage2_itb_walker.requestOrigin_Requested::total            0                       # Table walker requests started/completed, data/inst (Count)
system.cpu.mmu.stage2_itb_walker.requestOrigin_Completed::Data            0                       # Table walker requests started/completed, data/inst (Count)
system.cpu.mmu.stage2_itb_walker.requestOrigin_Completed::Inst            0                       # Table walker requests started/completed, data/inst (Count)
system.cpu.mmu.stage2_itb_walker.requestOrigin_Completed::total            0                       # Table walker requests started/completed, data/inst (Count)
system.cpu.mmu.stage2_itb_walker.requestOrigin::total            0                       # Table walker requests started/completed, data/inst (Count)
system.cpu.mmu.stage2_itb_walker.power_state.pwrStateResidencyTicks::UNDEFINED 105703695000                       # Cumulative time (in ticks) in various power states (Tick)
system.cpu.power_state.pwrStateResidencyTicks::ON 105703695000                       # Cumulative time (in ticks) in various power states (Tick)
system.cpu.thread_0.numInsts                        0                       # Number of Instructions committed (Count)
system.cpu.thread_0.numOps                          0                       # Number of Ops committed (Count)
system.cpu.thread_0.numMemRefs                      0                       # Number of Memory References (Count)
system.cpu.workload.numSyscalls                   412                       # Number of system calls (Count)
system.l2bus.transDist::ReadResp               568655                       # Transaction distribution (Count)
system.l2bus.transDist::WritebackDirty        2854771                       # Transaction distribution (Count)
system.l2bus.transDist::CleanEvict            1134746                       # Transaction distribution (Count)
system.l2bus.transDist::HardPFReq              902621                       # Transaction distribution (Count)
system.l2bus.transDist::ReadExReq             1428512                       # Transaction distribution (Count)
system.l2bus.transDist::ReadExResp            1428512                       # Transaction distribution (Count)
system.l2bus.transDist::ReadSharedReq          568655                       # Transaction distribution (Count)
system.l2bus.pktCount_system.cpu.icache.mem_side_port::system.l2cache.cpu_side_port          520                       # Packet count per connected requestor and responder (Count)
system.l2bus.pktCount_system.cpu.dcache.mem_side_port::system.l2cache.cpu_side_port      5990257                       # Packet count per connected requestor and responder (Count)
system.l2bus.pktCount::total                  5990777                       # Packet count per connected requestor and responder (Count)
system.l2bus.pktSize_system.cpu.icache.mem_side_port::system.l2cache.cpu_side_port        15616                       # Cumulative packet size per connected requestor and responder (Byte)
system.l2bus.pktSize_system.cpu.dcache.mem_side_port::system.l2cache.cpu_side_port    219212736                       # Cumulative packet size per connected requestor and responder (Byte)
system.l2bus.pktSize::total                 219228352                       # Cumulative packet size per connected requestor and responder (Byte)
system.l2bus.snoops                           2895695                       # Total snoops (Count)
system.l2bus.snoopTraffic                    91295680                       # Total snoop traffic (Byte)
system.l2bus.snoopFanout::samples             4892862                       # Request fanout histogram (Count)
system.l2bus.snoopFanout::mean               0.000049                       # Request fanout histogram (Count)
system.l2bus.snoopFanout::stdev              0.007033                       # Request fanout histogram (Count)
system.l2bus.snoopFanout::underflows                0      0.00%      0.00% # Request fanout histogram (Count)
system.l2bus.snoopFanout::0                   4892620    100.00%    100.00% # Request fanout histogram (Count)
system.l2bus.snoopFanout::1                       242      0.00%    100.00% # Request fanout histogram (Count)
system.l2bus.snoopFanout::2                         0      0.00%    100.00% # Request fanout histogram (Count)
system.l2bus.snoopFanout::overflows                 0      0.00%    100.00% # Request fanout histogram (Count)
system.l2bus.snoopFanout::min_value                 0                       # Request fanout histogram (Count)
system.l2bus.snoopFanout::max_value                 1                       # Request fanout histogram (Count)
system.l2bus.snoopFanout::total               4892862                       # Request fanout histogram (Count)
system.l2bus.power_state.pwrStateResidencyTicks::UNDEFINED 105703695000                       # Cumulative time (in ticks) in various power states (Tick)
system.l2bus.reqLayer0.occupancy           3425081000                       # Layer occupancy (ticks) (Tick)
system.l2bus.reqLayer0.utilization                0.0                       # Layer utilization (Ratio)
system.l2bus.respLayer0.occupancy              366000                       # Layer occupancy (ticks) (Tick)
system.l2bus.respLayer0.utilization               0.0                       # Layer utilization (Ratio)
system.l2bus.respLayer1.occupancy          2995384500                       # Layer occupancy (ticks) (Tick)
system.l2bus.respLayer1.utilization               0.0                       # Layer utilization (Ratio)
system.l2bus.snoop_filter.totRequests         3993610                       # Total number of requests made to the snoop filter. (Count)
system.l2bus.snoop_filter.hitSingleRequests      1996443                       # Number of requests hitting in the snoop filter with a single holder of the requested data. (Count)
system.l2bus.snoop_filter.hitMultiRequests           28                       # Number of requests hitting in the snoop filter with multiple (>1) holders of the requested data. (Count)
system.l2bus.snoop_filter.totSnoops               214                       # Total number of snoops made to the snoop filter. (Count)
system.l2bus.snoop_filter.hitSingleSnoops          214                       # Number of snoops hitting in the snoop filter with a single holder of the requested data. (Count)
system.l2bus.snoop_filter.hitMultiSnoops            0                       # Number of snoops hitting in the snoop filter with multiple (>1) holders of the requested data. (Count)
system.l2cache.demandHits::cpu.inst                25                       # number of demand (read+write) hits (Count)
system.l2cache.demandHits::cpu.data            678496                       # number of demand (read+write) hits (Count)
system.l2cache.demandHits::total               678521                       # number of demand (read+write) hits (Count)
system.l2cache.overallHits::cpu.inst               25                       # number of overall hits (Count)
system.l2cache.overallHits::cpu.data           678496                       # number of overall hits (Count)
system.l2cache.overallHits::total              678521                       # number of overall hits (Count)
system.l2cache.demandMisses::cpu.inst             219                       # number of demand (read+write) misses (Count)
system.l2cache.demandMisses::cpu.data         1318427                       # number of demand (read+write) misses (Count)
system.l2cache.demandMisses::total            1318646                       # number of demand (read+write) misses (Count)
system.l2cache.overallMisses::cpu.inst            219                       # number of overall misses (Count)
system.l2cache.overallMisses::cpu.data        1318427                       # number of overall misses (Count)
system.l2cache.overallMisses::total           1318646                       # number of overall misses (Count)
system.l2cache.demandMissLatency::cpu.inst     15232000                       # number of demand (read+write) miss ticks (Tick)
system.l2cache.demandMissLatency::cpu.data  98499332000                       # number of demand (read+write) miss ticks (Tick)
system.l2cache.demandMissLatency::total   98514564000                       # number of demand (read+write) miss ticks (Tick)
system.l2cache.overallMissLatency::cpu.inst     15232000                       # number of overall miss ticks (Tick)
system.l2cache.overallMissLatency::cpu.data  98499332000                       # number of overall miss ticks (Tick)
system.l2cache.overallMissLatency::total  98514564000                       # number of overall miss ticks (Tick)
system.l2cache.demandAccesses::cpu.inst           244                       # number of demand (read+write) accesses (Count)
system.l2cache.demandAccesses::cpu.data       1996923                       # number of demand (read+write) accesses (Count)
system.l2cache.demandAccesses::total          1997167                       # number of demand (read+write) accesses (Count)
system.l2cache.overallAccesses::cpu.inst          244                       # number of overall (read+write) accesses (Count)
system.l2cache.overallAccesses::cpu.data      1996923                       # number of overall (read+write) accesses (Count)
system.l2cache.overallAccesses::total         1997167                       # number of overall (read+write) accesses (Count)
system.l2cache.demandMissRate::cpu.inst      0.897541                       # miss rate for demand accesses (Ratio)
system.l2cache.demandMissRate::cpu.data      0.660229                       # miss rate for demand accesses (Ratio)
system.l2cache.demandMissRate::total         0.660258                       # miss rate for demand accesses (Ratio)
system.l2cache.overallMissRate::cpu.inst     0.897541                       # miss rate for overall accesses (Ratio)
system.l2cache.overallMissRate::cpu.data     0.660229                       # miss rate for overall accesses (Ratio)
system.l2cache.overallMissRate::total        0.660258                       # miss rate for overall accesses (Ratio)
system.l2cache.demandAvgMissLatency::cpu.inst 69552.511416                       # average overall miss latency in ticks ((Tick/Count))
system.l2cache.demandAvgMissLatency::cpu.data 74709.735162                       # average overall miss latency in ticks ((Tick/Count))
system.l2cache.demandAvgMissLatency::total 74708.878653                       # average overall miss latency in ticks ((Tick/Count))
system.l2cache.overallAvgMissLatency::cpu.inst 69552.511416                       # average overall miss latency ((Tick/Count))
system.l2cache.overallAvgMissLatency::cpu.data 74709.735162                       # average overall miss latency ((Tick/Count))
system.l2cache.overallAvgMissLatency::total 74708.878653                       # average overall miss latency ((Tick/Count))
system.l2cache.blockedCycles::no_mshrs              0                       # number of cycles access was blocked (Cycle)
system.l2cache.blockedCycles::no_targets            0                       # number of cycles access was blocked (Cycle)
system.l2cache.blockedCauses::no_mshrs              0                       # number of times access was blocked (Count)
system.l2cache.blockedCauses::no_targets            0                       # number of times access was blocked (Count)
system.l2cache.avgBlocked::no_mshrs               nan                       # average number of cycles each access was blocked ((Cycle/Count))
system.l2cache.avgBlocked::no_targets             nan                       # average number of cycles each access was blocked ((Cycle/Count))
system.l2cache.writebacks::writebacks         1426495                       # number of writebacks (Count)
system.l2cache.writebacks::total              1426495                       # number of writebacks (Count)
system.l2cache.demandMshrHits::cpu.data          9001                       # number of demand (read+write) MSHR hits (Count)
system.l2cache.demandMshrHits::total             9001                       # number of demand (read+write) MSHR hits (Count)
system.l2cache.overallMshrHits::cpu.data         9001                       # number of overall MSHR hits (Count)
system.l2cache.overallMshrHits::total            9001                       # number of overall MSHR hits (Count)
system.l2cache.demandMshrMisses::cpu.inst          219                       # number of demand (read+write) MSHR misses (Count)
system.l2cache.demandMshrMisses::cpu.data      1309426                       # number of demand (read+write) MSHR misses (Count)
system.l2cache.demandMshrMisses::total        1309645                       # number of demand (read+write) MSHR misses (Count)
system.l2cache.overallMshrMisses::cpu.inst          219                       # number of overall MSHR misses (Count)
system.l2cache.overallMshrMisses::cpu.data      1309426                       # number of overall MSHR misses (Count)
system.l2cache.overallMshrMisses::l2cache.prefetcher       687525                       # number of overall MSHR misses (Count)
system.l2cache.overallMshrMisses::total       1997170                       # number of overall MSHR misses (Count)
system.l2cache.demandMshrMissLatency::cpu.inst     13042000                       # number of demand (read+write) MSHR miss ticks (Tick)
system.l2cache.demandMshrMissLatency::cpu.data  84740655500                       # number of demand (read+write) MSHR miss ticks (Tick)
system.l2cache.demandMshrMissLatency::total  84753697500                       # number of demand (read+write) MSHR miss ticks (Tick)
system.l2cache.overallMshrMissLatency::cpu.inst     13042000                       # number of overall MSHR miss ticks (Tick)
system.l2cache.overallMshrMissLatency::cpu.data  84740655500                       # number of overall MSHR miss ticks (Tick)
system.l2cache.overallMshrMissLatency::l2cache.prefetcher  42752284937                       # number of overall MSHR miss ticks (Tick)
system.l2cache.overallMshrMissLatency::total 127505982437                       # number of overall MSHR miss ticks (Tick)
system.l2cache.demandMshrMissRate::cpu.inst     0.897541                       # mshr miss ratio for demand accesses (Ratio)
system.l2cache.demandMshrMissRate::cpu.data     0.655722                       # mshr miss ratio for demand accesses (Ratio)
system.l2cache.demandMshrMissRate::total     0.655751                       # mshr miss ratio for demand accesses (Ratio)
system.l2cache.overallMshrMissRate::cpu.inst     0.897541                       # mshr miss ratio for overall accesses (Ratio)
system.l2cache.overallMshrMissRate::cpu.data     0.655722                       # mshr miss ratio for overall accesses (Ratio)
system.l2cache.overallMshrMissRate::l2cache.prefetcher          inf                       # mshr miss ratio for overall accesses (Ratio)
system.l2cache.overallMshrMissRate::total     1.000002                       # mshr miss ratio for overall accesses (Ratio)
system.l2cache.demandAvgMshrMissLatency::cpu.inst 59552.511416                       # average overall mshr miss latency ((Tick/Count))
system.l2cache.demandAvgMshrMissLatency::cpu.data 64715.879706                       # average overall mshr miss latency ((Tick/Count))
system.l2cache.demandAvgMshrMissLatency::total 64715.016283                       # average overall mshr miss latency ((Tick/Count))
system.l2cache.overallAvgMshrMissLatency::cpu.inst 59552.511416                       # average overall mshr miss latency ((Tick/Count))
system.l2cache.overallAvgMshrMissLatency::cpu.data 64715.879706                       # average overall mshr miss latency ((Tick/Count))
system.l2cache.overallAvgMshrMissLatency::l2cache.prefetcher 62182.880531                       # average overall mshr miss latency ((Tick/Count))
system.l2cache.overallAvgMshrMissLatency::total 63843.329530                       # average overall mshr miss latency ((Tick/Count))
system.l2cache.replacements                   1993074                       # number of replacements (Count)
system.l2cache.CleanEvict.mshrMisses::writebacks            2                       # number of CleanEvict MSHR misses (Count)
system.l2cache.CleanEvict.mshrMisses::total            2                       # number of CleanEvict MSHR misses (Count)
system.l2cache.CleanEvict.mshrMissRate::writebacks          inf                       # mshr miss rate for CleanEvict accesses (Ratio)
system.l2cache.CleanEvict.mshrMissRate::total          inf                       # mshr miss rate for CleanEvict accesses (Ratio)
system.l2cache.HardPFReq.mshrMisses::l2cache.prefetcher       687525                       # number of HardPFReq MSHR misses (Count)
system.l2cache.HardPFReq.mshrMisses::total       687525                       # number of HardPFReq MSHR misses (Count)
system.l2cache.HardPFReq.mshrMissLatency::l2cache.prefetcher  42752284937                       # number of HardPFReq MSHR miss ticks (Tick)
system.l2cache.HardPFReq.mshrMissLatency::total  42752284937                       # number of HardPFReq MSHR miss ticks (Tick)
system.l2cache.HardPFReq.mshrMissRate::l2cache.prefetcher          inf                       # mshr miss rate for HardPFReq accesses (Ratio)
system.l2cache.HardPFReq.mshrMissRate::total          inf                       # mshr miss rate for HardPFReq accesses (Ratio)
system.l2cache.HardPFReq.avgMshrMissLatency::l2cache.prefetcher 62182.880531                       # average HardPFReq mshr miss latency ((Tick/Count))
system.l2cache.HardPFReq.avgMshrMissLatency::total 62182.880531                       # average HardPFReq mshr miss latency ((Tick/Count))
system.l2cache.ReadExReq.hits::cpu.data        507871                       # number of ReadExReq hits (Count)
system.l2cache.ReadExReq.hits::total           507871                       # number of ReadExReq hits (Count)
system.l2cache.ReadExReq.misses::cpu.data       920641                       # number of ReadExReq misses (Count)
system.l2cache.ReadExReq.misses::total         920641                       # number of ReadExReq misses (Count)
system.l2cache.ReadExReq.missLatency::cpu.data  68468336000                       # number of ReadExReq miss ticks (Tick)
system.l2cache.ReadExReq.missLatency::total  68468336000                       # number of ReadExReq miss ticks (Tick)
system.l2cache.ReadExReq.accesses::cpu.data      1428512                       # number of ReadExReq accesses(hits+misses) (Count)
system.l2cache.ReadExReq.accesses::total      1428512                       # number of ReadExReq accesses(hits+misses) (Count)
system.l2cache.ReadExReq.missRate::cpu.data     0.644476                       # miss rate for ReadExReq accesses (Ratio)
system.l2cache.ReadExReq.missRate::total     0.644476                       # miss rate for ReadExReq accesses (Ratio)
system.l2cache.ReadExReq.avgMissLatency::cpu.data 74370.287658                       # average ReadExReq miss latency ((Tick/Count))
system.l2cache.ReadExReq.avgMissLatency::total 74370.287658                       # average ReadExReq miss latency ((Tick/Count))
system.l2cache.ReadExReq.mshrMisses::cpu.data       920641                       # number of ReadExReq MSHR misses (Count)
system.l2cache.ReadExReq.mshrMisses::total       920641                       # number of ReadExReq MSHR misses (Count)
system.l2cache.ReadExReq.mshrMissLatency::cpu.data  59261926000                       # number of ReadExReq MSHR miss ticks (Tick)
system.l2cache.ReadExReq.mshrMissLatency::total  59261926000                       # number of ReadExReq MSHR miss ticks (Tick)
system.l2cache.ReadExReq.mshrMissRate::cpu.data     0.644476                       # mshr miss rate for ReadExReq accesses (Ratio)
system.l2cache.ReadExReq.mshrMissRate::total     0.644476                       # mshr miss rate for ReadExReq accesses (Ratio)
system.l2cache.ReadExReq.avgMshrMissLatency::cpu.data 64370.287658                       # average ReadExReq mshr miss latency ((Tick/Count))
system.l2cache.ReadExReq.avgMshrMissLatency::total 64370.287658                       # average ReadExReq mshr miss latency ((Tick/Count))
system.l2cache.ReadSharedReq.hits::cpu.inst           25                       # number of ReadSharedReq hits (Count)
system.l2cache.ReadSharedReq.hits::cpu.data       170625                       # number of ReadSharedReq hits (Count)
[...]
system.mem_ctrl.dram.perBankRdBursts::7         62484                       # Per bank write bursts (Count)
system.mem_ctrl.dram.perBankRdBursts::8         62497                       # Per bank write bursts (Count)
system.mem_ctrl.dram.perBankRdBursts::9         62470                       # Per bank write bursts (Count)
system.mem_ctrl.dram.perBankRdBursts::10        62495                       # Per bank write bursts (Count)
system.mem_ctrl.dram.perBankRdBursts::11        62494                       # Per bank write bursts (Count)
system.mem_ctrl.dram.perBankRdBursts::12        62464                       # Per bank write bursts (Count)
system.mem_ctrl.dram.perBankRdBursts::13        62464                       # Per bank write bursts (Count)
system.mem_ctrl.dram.perBankRdBursts::14        62463                       # Per bank write bursts (Count)
system.mem_ctrl.dram.perBankRdBursts::15        62338                       # Per bank write bursts (Count)
system.mem_ctrl.dram.perBankRdBursts::16        62348                       # Per bank write bursts (Count)
system.mem_ctrl.dram.perBankRdBursts::17        62361                       # Per bank write bursts (Count)
system.mem_ctrl.dram.perBankRdBursts::18        62360                       # Per bank write bursts (Count)
system.mem_ctrl.dram.perBankRdBursts::19        62372                       # Per bank write bursts (Count)
system.mem_ctrl.dram.perBankRdBursts::20        62366                       # Per bank write bursts (Count)
system.mem_ctrl.dram.perBankRdBursts::21        62342                       # Per bank write bursts (Count)
system.mem_ctrl.dram.perBankRdBursts::22        62343                       # Per bank write bursts (Count)
system.mem_ctrl.dram.perBankRdBursts::23        62466                       # Per bank write bursts (Count)
system.mem_ctrl.dram.perBankRdBursts::24        62464                       # Per bank write bursts (Count)
system.mem_ctrl.dram.perBankRdBursts::25        62468                       # Per bank write bursts (Count)
system.mem_ctrl.dram.perBankRdBursts::26        62471                       # Per bank write bursts (Count)
system.mem_ctrl.dram.perBankRdBursts::27        62464                       # Per bank write bursts (Count)
system.mem_ctrl.dram.perBankRdBursts::28        62464                       # Per bank write bursts (Count)
system.mem_ctrl.dram.perBankRdBursts::29        62425                       # Per bank write bursts (Count)
system.mem_ctrl.dram.perBankRdBursts::30        62336                       # Per bank write bursts (Count)
system.mem_ctrl.dram.perBankRdBursts::31        62336                       # Per bank write bursts (Count)
system.mem_ctrl.dram.perBankWrBursts::0         44544                       # Per bank write bursts (Count)
system.mem_ctrl.dram.perBankWrBursts::1         44544                       # Per bank write bursts (Count)
system.mem_ctrl.dram.perBankWrBursts::2         44544                       # Per bank write bursts (Count)
system.mem_ctrl.dram.perBankWrBursts::3         44544                       # Per bank write bursts (Count)
system.mem_ctrl.dram.perBankWrBursts::4         44544                       # Per bank write bursts (Count)
system.mem_ctrl.dram.perBankWrBursts::5         44576                       # Per bank write bursts (Count)
system.mem_ctrl.dram.perBankWrBursts::6         44672                       # Per bank write bursts (Count)
system.mem_ctrl.dram.perBankWrBursts::7         44672                       # Per bank write bursts (Count)
system.mem_ctrl.dram.perBankWrBursts::8         44672                       # Per bank write bursts (Count)
system.mem_ctrl.dram.perBankWrBursts::9         44672                       # Per bank write bursts (Count)
system.mem_ctrl.dram.perBankWrBursts::10        44672                       # Per bank write bursts (Count)
system.mem_ctrl.dram.perBankWrBursts::11        44672                       # Per bank write bursts (Count)
system.mem_ctrl.dram.perBankWrBursts::12        44659                       # Per bank write bursts (Count)
system.mem_ctrl.dram.perBankWrBursts::13        44586                       # Per bank write bursts (Count)
system.mem_ctrl.dram.perBankWrBursts::14        44544                       # Per bank write bursts (Count)
system.mem_ctrl.dram.perBankWrBursts::15        44544                       # Per bank write bursts (Count)
system.mem_ctrl.dram.perBankWrBursts::16        44544                       # Per bank write bursts (Count)
system.mem_ctrl.dram.perBankWrBursts::17        44544                       # Per bank write bursts (Count)
system.mem_ctrl.dram.perBankWrBursts::18        44549                       # Per bank write bursts (Count)
system.mem_ctrl.dram.perBankWrBursts::19        44577                       # Per bank write bursts (Count)
system.mem_ctrl.dram.perBankWrBursts::20        44568                       # Per bank write bursts (Count)
system.mem_ctrl.dram.perBankWrBursts::21        44549                       # Per bank write bursts (Count)
system.mem_ctrl.dram.perBankWrBursts::22        44547                       # Per bank write bursts (Count)
system.mem_ctrl.dram.perBankWrBursts::23        44544                       # Per bank write bursts (Count)
system.mem_ctrl.dram.perBankWrBursts::24        44544                       # Per bank write bursts (Count)
system.mem_ctrl.dram.perBankWrBursts::25        44544                       # Per bank write bursts (Count)
system.mem_ctrl.dram.perBankWrBursts::26        44544                       # Per bank write bursts (Count)
system.mem_ctrl.dram.perBankWrBursts::27        44544                       # Per bank write bursts (Count)
system.mem_ctrl.dram.perBankWrBursts::28        44544                       # Per bank write bursts (Count)
system.mem_ctrl.dram.perBankWrBursts::29        44544                       # Per bank write bursts (Count)
system.mem_ctrl.dram.perBankWrBursts::30        44544                       # Per bank write bursts (Count)
system.mem_ctrl.dram.perBankWrBursts::31        44544                       # Per bank write bursts (Count)
system.mem_ctrl.dram.totQLat              28650253319                       # Total ticks spent queuing (Tick)
system.mem_ctrl.dram.totBusLat             6654570440                       # Total ticks spent in databus transfers (Tick)
system.mem_ctrl.dram.totMemAccLat         63584750959                       # Total ticks spent from burst creation until serviced by the DRAM (Tick)
system.mem_ctrl.dram.avgQLat                 14345.43                       # Average queueing delay per DRAM burst ((Tick/Count))
system.mem_ctrl.dram.avgBusLat                3332.00                       # Average bus latency per DRAM burst ((Tick/Count))
system.mem_ctrl.dram.avgMemAccLat            31837.43                       # Average memory access latency per DRAM burst ((Tick/Count))
system.mem_ctrl.dram.readRowHits              1803769                       # Number of row buffer hits during reads (Count)
system.mem_ctrl.dram.writeRowHits             1260070                       # Number of row buffer hits during writes (Count)
system.mem_ctrl.dram.readRowHitRate             90.32                       # Row buffer hit rate for reads (Ratio)
system.mem_ctrl.dram.writeRowHitRate            88.34                       # Row buffer hit rate for writes (Ratio)
system.mem_ctrl.dram.bytesPerActivate::samples       359763                       # Bytes accessed per row activation (Byte)
system.mem_ctrl.dram.bytesPerActivate::mean   609.039173                       # Bytes accessed per row activation (Byte)
system.mem_ctrl.dram.bytesPerActivate::gmean   541.361753                       # Bytes accessed per row activation (Byte)
system.mem_ctrl.dram.bytesPerActivate::stdev   269.957391                       # Bytes accessed per row activation (Byte)
system.mem_ctrl.dram.bytesPerActivate::0-127         6208      1.73%      1.73% # Bytes accessed per row activation (Byte)
system.mem_ctrl.dram.bytesPerActivate::128-255        13455      3.74%      5.47% # Bytes accessed per row activation (Byte)
system.mem_ctrl.dram.bytesPerActivate::256-383        29661      8.24%     13.71% # Bytes accessed per row activation (Byte)
system.mem_ctrl.dram.bytesPerActivate::384-511         9510      2.64%     16.35% # Bytes accessed per row activation (Byte)
system.mem_ctrl.dram.bytesPerActivate::512-639       197433     54.88%     71.23% # Bytes accessed per row activation (Byte)
system.mem_ctrl.dram.bytesPerActivate::640-767         4404      1.22%     72.46% # Bytes accessed per row activation (Byte)
system.mem_ctrl.dram.bytesPerActivate::768-895         4214      1.17%     73.63% # Bytes accessed per row activation (Byte)
system.mem_ctrl.dram.bytesPerActivate::896-1023         4266      1.19%     74.81% # Bytes accessed per row activation (Byte)
system.mem_ctrl.dram.bytesPerActivate::1024-1151        90612     25.19%    100.00% # Bytes accessed per row activation (Byte)
system.mem_ctrl.dram.bytesPerActivate::total       359763                       # Bytes accessed per row activation (Byte)
system.mem_ctrl.dram.bytesRead              127818880                       # Total bytes read (Byte)
system.mem_ctrl.dram.bytesWritten            91291840                       # Total bytes written (Byte)
system.mem_ctrl.dram.avgRdBW              1209.218656                       # Average DRAM read bandwidth in MiBytes/s ((Byte/Second))
system.mem_ctrl.dram.avgWrBW               863.657983                       # Average DRAM write bandwidth in MiBytes/s ((Byte/Second))
system.mem_ctrl.dram.peakBW                  19207.00                       # Theoretical peak bandwidth in MiByte/s ((Byte/Second))
system.mem_ctrl.dram.busUtil                    10.79                       # Data bus utilization in percentage (Ratio)
system.mem_ctrl.dram.busUtilRead                 6.30                       # Data bus utilization in percentage for reads (Ratio)
system.mem_ctrl.dram.busUtilWrite                4.50                       # Data bus utilization in percentage for writes (Ratio)
system.mem_ctrl.dram.pageHitRate                89.49                       # Row buffer hit rate, read and write combined (Ratio)
system.mem_ctrl.dram.power_state.pwrStateResidencyTicks::UNDEFINED 105703695000                       # Cumulative time (in ticks) in various power states (Tick)
system.mem_ctrl.dram.rank0.actEnergy     561185116.128035                       # Energy for activate commands per rank (pJ) (Joule)
system.mem_ctrl.dram.rank0.preEnergy     746080124.529508                       # Energy for precharge commands per rank (pJ) (Joule)
system.mem_ctrl.dram.rank0.readEnergy    4201201918.771336                       # Energy for read commands per rank (pJ) (Joule)
system.mem_ctrl.dram.rank0.writeEnergy   2682292013.855945                       # Energy for write commands per rank (pJ) (Joule)
system.mem_ctrl.dram.rank0.refreshEnergy 18807886666.863850                       # Energy for refresh commands per rank (pJ) (Joule)
system.mem_ctrl.dram.rank0.actBackEnergy 85321140658.892578                       # Energy for active background per rank (pJ) (Joule)
system.mem_ctrl.dram.rank0.preBackEnergy 3445885990.041790                       # Energy for precharge background per rank (pJ) (Joule)
system.mem_ctrl.dram.rank0.actPowerDownEnergy            0                       # Energy for active power-down per rank (pJ) (Joule)
system.mem_ctrl.dram.rank0.prePowerDownEnergy            0                       # Energy for precharge power-down per rank (pJ) (Joule)
system.mem_ctrl.dram.rank0.selfRefreshEnergy            0                       # Energy for self refresh per rank (pJ) (Joule)
system.mem_ctrl.dram.rank0.totalEnergy   115765672489.085251                       # Total energy per rank (pJ) (Joule)
system.mem_ctrl.dram.rank0.averagePower   1095.190405                       # Core power per rank (mW) (Watt)
system.mem_ctrl.dram.rank0.totalIdleTime            0                       # Total Idle time Per DRAM Rank (Tick)
system.mem_ctrl.dram.rank0.pwrStateTime::IDLE   4753102964                       # Time in different power states (Tick)
system.mem_ctrl.dram.rank0.pwrStateTime::REF   4751600000                       # Time in different power states (Tick)
system.mem_ctrl.dram.rank0.pwrStateTime::SREF            0                       # Time in different power states (Tick)
system.mem_ctrl.dram.rank0.pwrStateTime::PRE_PDN            0                       # Time in different power states (Tick)
system.mem_ctrl.dram.rank0.pwrStateTime::ACT  96198992036                       # Time in different power states (Tick)
system.mem_ctrl.dram.rank0.pwrStateTime::ACT_PDN            0                       # Time in different power states (Tick)
system.mem_ctrl.dram.rank1.actEnergy     560835815.904036                       # Energy for activate commands per rank (pJ) (Joule)
system.mem_ctrl.dram.rank1.preEnergy     745619880.700709                       # Energy for precharge commands per rank (pJ) (Joule)
system.mem_ctrl.dram.rank1.readEnergy    4199527804.684928                       # Energy for read commands per rank (pJ) (Joule)
system.mem_ctrl.dram.rank1.writeEnergy   2678958227.903940                       # Energy for write commands per rank (pJ) (Joule)
system.mem_ctrl.dram.rank1.refreshEnergy 18807886666.863850                       # Energy for refresh commands per rank (pJ) (Joule)
system.mem_ctrl.dram.rank1.actBackEnergy 85292321015.363480                       # Energy for active background per rank (pJ) (Joule)
system.mem_ctrl.dram.rank1.preBackEnergy 3468029896.934584                       # Energy for precharge background per rank (pJ) (Joule)
system.mem_ctrl.dram.rank1.actPowerDownEnergy            0                       # Energy for active power-down per rank (pJ) (Joule)
system.mem_ctrl.dram.rank1.prePowerDownEnergy            0                       # Energy for precharge power-down per rank (pJ) (Joule)
system.mem_ctrl.dram.rank1.selfRefreshEnergy            0                       # Energy for self refresh per rank (pJ) (Joule)
system.mem_ctrl.dram.rank1.totalEnergy   115753179308.357239                       # Total energy per rank (pJ) (Joule)
system.mem_ctrl.dram.rank1.averagePower   1095.072214                       # Core power per rank (mW) (Watt)
system.mem_ctrl.dram.rank1.totalIdleTime            0                       # Total Idle time Per DRAM Rank (Tick)
system.mem_ctrl.dram.rank1.pwrStateTime::IDLE   4788791390                       # Time in different power states (Tick)
system.mem_ctrl.dram.rank1.pwrStateTime::REF   4751600000                       # Time in different power states (Tick)
system.mem_ctrl.dram.rank1.pwrStateTime::SREF            0                       # Time in different power states (Tick)
system.mem_ctrl.dram.rank1.pwrStateTime::PRE_PDN            0                       # Time in different power states (Tick)
system.mem_ctrl.dram.rank1.pwrStateTime::ACT  96163303610                       # Time in different power states (Tick)
system.mem_ctrl.dram.rank1.pwrStateTime::ACT_PDN            0                       # Time in different power states (Tick)
system.mem_ctrl.power_state.pwrStateResidencyTicks::UNDEFINED 105703695000                       # Cumulative time (in ticks) in various power states (Tick)
system.membus.transDist::ReadResp             1076529                       # Transaction distribution (Count)
system.membus.transDist::WritebackDirty       1426495                       # Transaction distribution (Count)
system.membus.transDist::CleanEvict            566367                       # Transaction distribution (Count)
system.membus.transDist::ReadExReq             920641                       # Transaction distribution (Count)
system.membus.transDist::ReadExResp            920641                       # Transaction distribution (Count)
system.membus.transDist::ReadSharedReq        1076529                       # Transaction distribution (Count)
system.membus.pktCount_system.l2cache.mem_side_port::system.mem_ctrl.port      5987202                       # Packet count per connected requestor and responder (Count)
system.membus.pktCount::total                 5987202                       # Packet count per connected requestor and responder (Count)
system.membus.pktSize_system.l2cache.mem_side_port::system.mem_ctrl.port    219114560                       # Cumulative packet size per connected requestor and responder (Byte)
system.membus.pktSize::total                219114560                       # Cumulative packet size per connected requestor and responder (Byte)
system.membus.snoops                                0                       # Total snoops (Count)
system.membus.snoopTraffic                          0                       # Total snoop traffic (Byte)
system.membus.snoopFanout::samples            1997170                       # Request fanout histogram (Count)
system.membus.snoopFanout::mean                     0                       # Request fanout histogram (Count)
system.membus.snoopFanout::stdev                    0                       # Request fanout histogram (Count)
system.membus.snoopFanout::underflows               0      0.00%      0.00% # Request fanout histogram (Count)
system.membus.snoopFanout::0                  1997170    100.00%    100.00% # Request fanout histogram (Count)
system.membus.snoopFanout::1                        0      0.00%    100.00% # Request fanout histogram (Count)
system.membus.snoopFanout::overflows                0      0.00%    100.00% # Request fanout histogram (Count)
system.membus.snoopFanout::min_value                0                       # Request fanout histogram (Count)
system.membus.snoopFanout::max_value                0                       # Request fanout histogram (Count)
system.membus.snoopFanout::total              1997170                       # Request fanout histogram (Count)
system.membus.power_state.pwrStateResidencyTicks::UNDEFINED 105703695000                       # Cumulative time (in ticks) in various power states (Tick)
system.membus.reqLayer0.occupancy          4849616139                       # Layer occupancy (ticks) (Tick)
system.membus.reqLayer0.utilization               0.0                       # Layer utilization (Ratio)
system.membus.respLayer0.occupancy         5123924487                       # Layer occupancy (ticks) (Tick)
system.membus.respLayer0.utilization              0.0                       # Layer utilization (Ratio)
system.membus.snoop_filter.totRequests        3990032                       # Total number of requests made to the snoop filter. (Count)
system.membus.snoop_filter.hitSingleRequests      1992862                       # Number of requests hitting in the snoop filter with a single holder of the requested data. (Count)
system.membus.snoop_filter.hitMultiRequests            0                       # Number of requests hitting in the snoop filter with multiple (>1) holders of the requested data. (Count)
system.membus.snoop_filter.totSnoops                0                       # Total number of snoops made to the snoop filter. (Count)
system.membus.snoop_filter.hitSingleSnoops            0                       # Number of snoops hitting in the snoop filter with a single holder of the requested data. (Count)
system.membus.snoop_filter.hitMultiSnoops            0                       # Number of snoops hitting in the snoop filter with multiple (>1) holders of the requested data. (Count)
system.workload.inst.arm                            0                       # number of arm instructions executed (Count)
system.workload.inst.quiesce                        0                       # number of quiesce instructions executed (Count)

---------- End Simulation Statistics   ----------
