
---------- Begin Simulation Statistics ----------
simSeconds                                   0.000039                       # Number of seconds simulated (Second)
simTicks                                     38536000                       # Number of ticks simulated (Tick)
finalTick                                    38536000                       # Number of ticks from beginning of simulation (restored from checkpoints and never reset) (Tick)
simFreq                                  1000000000000                       # The number of ticks per simulated second ((Tick/Second))
hostSeconds                                      0.02                       # Real time elapsed on the host (Second)
hostTickRate                               1643777161                       # The number of ticks simulated per host second (ticks/s) ((Tick/Second))
hostMemory                                    2248952                       # Number of bytes of host memory used (Byte)
simInsts                                         4994                       # Number of instructions simulated (Count)
simOps                                           5777                       # Number of ops (including micro ops) simulated (Count)
hostInstRate                                   211872                       # Simulator instruction rate (inst/s) ((Count/Second))
hostOpRate                                     245004                       # Simulator op (including micro ops) rate (op/s) ((Count/Second))
system.clk_domain.clock                           500                       # Clock period in ticks (Tick)
system.clk_domain.voltage_domain.voltage            1                       # Voltage in Volts (Volt)
system.cpu.numCycles                            77072                       # Number of cpu cycles simulated (Cycle)
system.cpu.cpi                              15.310290                       # CPI: cycles per instruction (core level) ((Cycle/Count))
system.cpu.ipc                               0.065316                       # IPC: instructions per cycle (core level) ((Count/Cycle))
system.cpu.numWorkItemsStarted                      0                       # Number of work items this cpu started (Count)
system.cpu.numWorkItemsCompleted                    0                       # Number of work items this cpu completed (Count)
system.cpu.commitStats0.numInsts                 5034                       # Number of instructions committed (thread level) (Count)
system.cpu.commitStats0.numOps                   5841                       # Number of ops (including micro ops) committed (thread level) (Count)
system.cpu.commitStats0.numInstsNotNOP              0                       # Number of instructions committed excluding NOPs or prefetches (Count)
system.cpu.commitStats0.numOpsNotNOP                0                       # Number of Ops (including micro ops) Simulated (Count)
system.cpu.commitStats0.cpi                 15.310290                       # CPI: cycles per instruction (thread level) ((Cycle/Count))
system.cpu.commitStats0.ipc                  0.065316                       # IPC: instructions per cycle (thread level) ((Count/Cycle))
system.cpu.commitStats0.numMemRefs                  0                       # Number of memory references committed (Count)
system.cpu.commitStats0.numFpInsts                  0                       # Number of float instructions (Count)
system.cpu.commitStats0.numIntInsts              4986                       # Number of integer instructions (Count)
system.cpu.commitStats0.numLoadInsts             1087                       # Number of load instructions (Count)
system.cpu.commitStats0.numStoreInsts             953                       # Number of store instructions (Count)
system.cpu.commitStats0.numVecInsts                 0                       # Number of vector instructions (Count)
system.cpu.commitStats0.committedInstType::No_OpClass            0      0.00%      0.00% # Class of committed instruction. (Count)
system.cpu.commitStats0.committedInstType::IntAlu         3794     64.95%     64.95% # Class of committed instruction. (Count)
system.cpu.commitStats0.committedInstType::IntMult            4      0.07%     65.02% # Class of committed instruction. (Count)
system.cpu.commitStats0.committedInstType::IntDiv            0      0.00%     65.02% # Class of committed instruction. (Count)
system.cpu.commitStats0.committedInstType::FloatAdd            0      0.00%     65.02% # Class of committed instruction. (Count)
system.cpu.commitStats0.committedInstType::FloatCmp            0      0.00%     65.02% # Class of committed instruction. (Count)
system.cpu.commitStats0.committedInstType::FloatCvt            0      0.00%     65.02% # Class of committed instruction. (Count)
system.cpu.commitStats0.committedInstType::FloatMult            0      0.00%     65.02% # Class of committed instruction. (Count)
system.cpu.commitStats0.committedInstType::FloatMultAcc            0      0.00%     65.02% # Class of committed instruction. (Count)
system.cpu.commitStats0.committedInstType::FloatDiv            0      0.00%     65.02% # Class of committed instruction. (Count)
system.cpu.commitStats0.committedInstType::FloatMisc            0      0.00%     65.02% # Class of committed instruction. (Count)
system.cpu.commitStats0.committedInstType::FloatSqrt            0      0.00%     65.02% # Class of committed instruction. (Count)
system.cpu.commitStats0.committedInstType::SimdAdd            0      0.00%     65.02% # Class of committed instruction. (Count)
system.cpu.commitStats0.committedInstType::SimdAddAcc            0      0.00%     65.02% # Class of committed instruction. (Count)
system.cpu.commitStats0.committedInstType::SimdAlu            0      0.00%     65.02% # Class of committed instruction. (Count)
system.cpu.commitStats0.committedInstType::SimdCmp            0      0.00%     65.02% # Class of committed instruction. (Count)
system.cpu.commitStats0.committedInstType::SimdCvt            0      0.00%     65.02% # Class of committed instruction. (Count)
system.cpu.commitStats0.committedInstType::SimdMisc            0      0.00%     65.02% # Class of committed instruction. (Count)
system.cpu.commitStats0.committedInstType::SimdMult            0      0.00%     65.02% # Class of committed instruction. (Count)
system.cpu.commitStats0.committedInstType::SimdMultAcc            0      0.00%     65.02% # Class of committed instruction. (Count)
system.cpu.commitStats0.committedInstType::SimdMatMultAcc            0      0.00%     65.02% # Class of committed instruction. (Count)
system.cpu.commitStats0.committedInstType::SimdShift            0      0.00%     65.02% # Class of committed instruction. (Count)
system.cpu.commitStats0.committedInstType::SimdShiftAcc            0      0.00%     65.02% # Class of committed instruction. (Count)
system.cpu.commitStats0.committedInstType::SimdDiv            0      0.00%     65.02% # Class of committed instruction. (Count)
system.cpu.commitStats0.committedInstType::SimdSqrt            0      0.00%     65.02% # Class of committed instruction. (Count)
system.cpu.commitStats0.committedInstType::SimdFloatAdd            0      0.00%     65.02% # Class of committed instruction. (Count)
system.cpu.commitStats0.committedInstType::SimdFloatAlu            0      0.00%     65.02% # Class of committed instruction. (Count)
system.cpu.commitStats0.committedInstType::SimdFloatCmp            0      0.00%     65.02% # Class of committed instruction. (Count)
system.cpu.commitStats0.committedInstType::SimdFloatCvt            0      0.00%     65.02% # Class of committed instruction. (Count)
system.cpu.commitStats0.committedInstType::SimdFloatDiv            0      0.00%     65.02% # Class of committed instruction. (Count)
system.cpu.commitStats0.committedInstType::SimdFloatMisc            3      0.05%     65.07% # Class of committed instruction. (Count)
system.cpu.commitStats0.committedInstType::SimdFloatMult            0      0.00%     65.07% # Class of committed instruction. (Count)
system.cpu.commitStats0.committedInstType::SimdFloatMultAcc            0      0.00%     65.07% # Class of committed instruction. (Count)
system.cpu.commitStats0.committedInstType::SimdFloatMatMultAcc            0      0.00%     65.07% # Class of committed instruction. (Count)
system.cpu.commitStats0.committedInstType::SimdFloatSqrt            0      0.00%     65.07% # Class of committed instruction. (Count)
system.cpu.commitStats0.committedInstType::SimdReduceAdd            0      0.00%     65.07% # Class of committed instruction. (Count)
system.cpu.commitStats0.committedInstType::SimdReduceAlu            0      0.00%     65.07% # Class of committed instruction. (Count)
system.cpu.commitStats0.committedInstType::SimdReduceCmp            0      0.00%     65.07% # Class of committed instruction. (Count)
system.cpu.commitStats0.committedInstType::SimdFloatReduceAdd            0      0.00%     65.07% # Class of committed instruction. (Count)
system.cpu.commitStats0.committedInstType::SimdFloatReduceCmp            0      0.00%     65.07% # Class of committed instruction. (Count)
system.cpu.commitStats0.committedInstType::SimdAes            0      0.00%     65.07% # Class of committed instruction. (Count)
system.cpu.commitStats0.committedInstType::SimdAesMix            0      0.00%     65.07% # Class of committed instruction. (Count)
system.cpu.commitStats0.committedInstType::SimdSha1Hash            0      0.00%     65.07% # Class of committed instruction. (Count)
system.cpu.commitStats0.committedInstType::SimdSha1Hash2            0      0.00%     65.07% # Class of committed instruction. (Count)
system.cpu.commitStats0.committedInstType::SimdSha256Hash            0      0.00%     65.07% # Class of committed instruction. (Count)
system.cpu.commitStats0.committedInstType::SimdSha256Hash2            0      0.00%     65.07% # Class of committed instruction. (Count)
system.cpu.commitStats0.committedInstType::SimdShaSigma2            0      0.00%     65.07% # Class of committed instruction. (Count)
system.cpu.commitStats0.committedInstType::SimdShaSigma3            0      0.00%     65.07% # Class of committed instruction. (Count)
system.cpu.commitStats0.committedInstType::SimdPredAlu            0      0.00%     65.07% # Class of committed instruction. (Count)
system.cpu.commitStats0.committedInstType::Matrix            0      0.00%     65.07% # Class of committed instruction. (Count)
system.cpu.commitStats0.committedInstType::MatrixMov            0      0.00%     65.07% # Class of committed instruction. (Count)
system.cpu.commitStats0.committedInstType::MatrixOP            0      0.00%     65.07% # Class of committed instruction. (Count)
system.cpu.commitStats0.committedInstType::MemRead         1087     18.61%     83.68% # Class of committed instruction. (Count)
system.cpu.commitStats0.committedInstType::MemWrite          953     16.32%    100.00% # Class of committed instruction. (Count)
system.cpu.commitStats0.committedInstType::FloatMemRead            0      0.00%    100.00% # Class of committed instruction. (Count)
system.cpu.commitStats0.committedInstType::FloatMemWrite            0      0.00%    100.00% # Class of committed instruction. (Count)
system.cpu.commitStats0.committedInstType::IprAccess            0      0.00%    100.00% # Class of committed instruction. (Count)
system.cpu.commitStats0.committedInstType::InstPrefetch            0      0.00%    100.00% # Class of committed instruction. (Count)
system.cpu.commitStats0.committedInstType::VectorUnitStrideLoad            0      0.00%    100.00% # Class of committed instruction. (Count)
system.cpu.commitStats0.committedInstType::VectorUnitStrideStore            0      0.00%    100.00% # Class of committed instruction. (Count)
system.cpu.commitStats0.committedInstType::VectorUnitStrideMaskLoad            0      0.00%    100.00% # Class of committed instruction. (Count)
system.cpu.commitStats0.committedInstType::VectorUnitStrideMaskStore            0      0.00%    100.00% # Class of committed instruction. (Count)
system.cpu.commitStats0.committedInstType::VectorStridedLoad            0      0.00%    100.00% # Class of committed instruction. (Count)
system.cpu.commitStats0.committedInstType::VectorStridedStore            0      0.00%    100.00% # Class of committed instruction. (Count)
system.cpu.commitStats0.committedInstType::VectorIndexedLoad            0      0.00%    100.00% # Class of committed instruction. (Count)
system.cpu.commitStats0.committedInstType::VectorIndexedStore            0      0.00%    100.00% # Class of committed instruction. (Count)
system.cpu.commitStats0.committedInstType::VectorUnitStrideFaultOnlyFirstLoad            0      0.00%    100.00% # Class of committed instruction. (Count)
system.cpu.commitStats0.committedInstType::VectorWholeRegisterLoad            0      0.00%    100.00% # Class of committed instruction. (Count)
system.cpu.commitStats0.committedInstType::VectorWholeRegisterStore            0      0.00%    100.00% # Class of committed instruction. (Count)
system.cpu.commitStats0.committedInstType::VectorIntegerArith            0      0.00%    100.00% # Class of committed instruction. (Count)
system.cpu.commitStats0.committedInstType::VectorFloatArith            0      0.00%    100.00% # Class of committed instruction. (Count)
system.cpu.commitStats0.committedInstType::VectorFloatConvert            0      0.00%    100.00% # Class of committed instruction. (Count)
system.cpu.commitStats0.committedInstType::VectorIntegerReduce            0      0.00%    100.00% # Class of committed instruction. (Count)
system.cpu.commitStats0.committedInstType::VectorFloatReduce            0      0.00%    100.00% # Class of committed instruction. (Count)
system.cpu.commitStats0.committedInstType::VectorMisc            0      0.00%    100.00% # Class of committed instruction. (Count)
system.cpu.commitStats0.committedInstType::VectorIntegerExtension            0      0.00%    100.00% # Class of committed instruction. (Count)
system.cpu.commitStats0.committedInstType::VectorConfig            0      0.00%    100.00% # Class of committed instruction. (Count)
system.cpu.commitStats0.committedInstType::total         5841                       # Class of committed instruction. (Count)
system.cpu.commitStats0.committedControl::IsControl         1109                       # Class of control type instructions committed (Count)
system.cpu.commitStats0.committedControl::IsDirectControl          912                       # Class of control type instructions committed (Count)
system.cpu.commitStats0.committedControl::IsIndirectControl          197                       # Class of control type instructions committed (Count)
system.cpu.commitStats0.committedControl::IsCondControl          802                       # Class of control type instructions committed (Count)
system.cpu.commitStats0.committedControl::IsUncondControl          307                       # Class of control type instructions committed (Count)
system.cpu.commitStats0.committedControl::IsCall           88                       # Class of control type instructions committed (Count)
system.cpu.commitStats0.committedControl::IsReturn          127                       # Class of control type instructions committed (Count)
system.cpu.exec_context.thread_0.numMatAluAccesses            0                       # Number of matrix alu accesses (Count)
system.cpu.exec_context.thread_0.numCallsReturns          215                       # Number of times a function call or return occured (Count)
system.cpu.exec_context.thread_0.numMatInsts            0                       # Number of matrix instructions (Count)
system.cpu.exec_context.thread_0.numIdleCycles     0.002000                       # Number of idle cycles (Cycle)
system.cpu.exec_context.thread_0.numBusyCycles 77071.998000                       # Number of busy cycles (Cycle)
system.cpu.exec_context.thread_0.notIdleFraction     1.000000                       # Percentage of non-idle cycles (Ratio)
system.cpu.exec_context.thread_0.idleFraction     0.000000                       # Percentage of idle cycles (Ratio)
system.cpu.executeStats0.numInsts                   0                       # Number of executed instructions (Count)
system.cpu.executeStats0.numNop                     0                       # Number of nop insts executed (Count)
system.cpu.executeStats0.numBranches                0                       # Number of branches executed (Count)
system.cpu.executeStats0.numLoadInsts               0                       # Number of load instructions executed (Count)
system.cpu.executeStats0.numStoreInsts           2040                       # Number of stores executed (Count)
system.cpu.executeStats0.instRate                   0                       # Inst execution rate ((Count/Cycle))
system.cpu.executeStats0.numFpRegWrites             0                       # Number of times the floating registers were written (Count)
system.cpu.executeStats0.numIntAluAccesses         4986                       # Number of integer alu accesses (Count)
system.cpu.executeStats0.numIntRegReads          5884                       # Number of times the integer registers were read (Count)
system.cpu.executeStats0.numIntRegWrites         2994                       # Number of times the integer registers were written (Count)
system.cpu.executeStats0.numMemRefs              2040                       # Number of memory refs (Count)
system.cpu.executeStats0.numMiscRegReads         2086                       # Number of times the Misc registers were read (Count)
system.cpu.executeStats0.numMiscRegWrites           23                       # Number of times the Misc registers were written (Count)
system.cpu.executeStats0.numVecAluAccesses            0                       # Number of vector alu accesses (Count)
system.cpu.executeStats0.numVecRegReads            16                       # Number of times the vector registers were read (Count)
system.cpu.executeStats0.numDiscardedOps            0                       # Number of ops (including micro ops) which were discarded before commit (Count)
system.cpu.fetchStats0.numInsts                  5034                       # Number of instructions fetched (thread level) (Count)
system.cpu.fetchStats0.numOps                    5841                       # Number of ops (including micro ops) fetched (thread level) (Count)
system.cpu.fetchStats0.fetchRate             0.065316                       # Number of inst fetches per cycle ((Count/Cycle))
system.cpu.fetchStats0.numBranches               1109                       # Number of branches fetched (Count)
system.cpu.fetchStats0.branchRate            0.014389                       # Number of branch fetches per cycle (Ratio)
system.cpu.fetchStats0.numFetchSuspends             0                       # Number of times Execute suspended instruction fetching (Count)
system.cpu.l1bus.transDist::ReadReq              6091                       # Transaction distribution (Count)
system.cpu.l1bus.transDist::ReadResp             6102                       # Transaction distribution (Count)
system.cpu.l1bus.transDist::WriteReq              925                       # Transaction distribution (Count)
system.cpu.l1bus.transDist::WriteResp             925                       # Transaction distribution (Count)
system.cpu.l1bus.transDist::WritebackDirty            1                       # Transaction distribution (Count)
system.cpu.l1bus.transDist::CleanEvict             12                       # Transaction distribution (Count)
system.cpu.l1bus.transDist::LoadLockedReq           11                       # Transaction distribution (Count)
system.cpu.l1bus.transDist::StoreCondReq           11                       # Transaction distribution (Count)
system.cpu.l1bus.transDist::StoreCondResp           11                       # Transaction distribution (Count)
system.cpu.l1bus.pktCount_system.cpu.icache_port::system.cpu.l1cache.cpu_side_port        10072                       # Packet count per connected requestor and responder (Count)
system.cpu.l1bus.pktCount_system.cpu.dcache_port::system.cpu.l1cache.cpu_side_port         4004                       # Packet count per connected requestor and responder (Count)
system.cpu.l1bus.pktCount::total                14076                       # Packet count per connected requestor and responder (Count)
system.cpu.l1bus.pktSize_system.cpu.icache_port::system.cpu.l1cache.cpu_side_port        20144                       # Cumulative packet size per connected requestor and responder (Byte)
system.cpu.l1bus.pktSize_system.cpu.dcache_port::system.cpu.l1cache.cpu_side_port         8376                       # Cumulative packet size per connected requestor and responder (Byte)
system.cpu.l1bus.pktSize::total                 28520                       # Cumulative packet size per connected requestor and responder (Byte)
system.cpu.l1bus.snoops                            13                       # Total snoops (Count)
system.cpu.l1bus.snoopTraffic                      64                       # Total snoop traffic (Byte)
system.cpu.l1bus.snoopFanout::samples            7051                       # Request fanout histogram (Count)
system.cpu.l1bus.snoopFanout::mean                  0                       # Request fanout histogram (Count)
system.cpu.l1bus.snoopFanout::stdev                 0                       # Request fanout histogram (Count)
system.cpu.l1bus.snoopFanout::underflows            0      0.00%      0.00% # Request fanout histogram (Count)
system.cpu.l1bus.snoopFanout::0                  7051    100.00%    100.00% # Request fanout histogram (Count)
system.cpu.l1bus.snoopFanout::1                     0      0.00%    100.00% # Request fanout histogram (Count)
system.cpu.l1bus.snoopFanout::overflows             0      0.00%    100.00% # Request fanout histogram (Count)
system.cpu.l1bus.snoopFanout::min_value             0                       # Request fanout histogram (Count)
system.cpu.l1bus.snoopFanout::max_value             0                       # Request fanout histogram (Count)
system.cpu.l1bus.snoopFanout::total              7051                       # Request fanout histogram (Count)
system.cpu.l1bus.power_state.pwrStateResidencyTicks::UNDEFINED     38536000                       # Cumulative time (in ticks) in various power states (Tick)
system.cpu.l1bus.reqLayer0.occupancy          3987000                       # Layer occupancy (ticks) (Tick)
system.cpu.l1bus.reqLayer0.utilization            0.1                       # Layer utilization (Ratio)
system.cpu.l1bus.respLayer0.occupancy         5036000                       # Layer occupancy (ticks) (Tick)
system.cpu.l1bus.respLayer0.utilization           0.1                       # Layer utilization (Ratio)
system.cpu.l1bus.respLayer1.occupancy         1534000                       # Layer occupancy (ticks) (Tick)
system.cpu.l1bus.respLayer1.utilization           0.0                       # Layer utilization (Ratio)
system.cpu.l1bus.snoop_filter.totRequests            0                       # Total number of requests made to the snoop filter. (Count)
system.cpu.l1bus.snoop_filter.hitSingleRequests            0                       # Number of requests hitting in the snoop filter with a single holder of the requested data. (Count)
system.cpu.l1bus.snoop_filter.hitMultiRequests            0                       # Number of requests hitting in the snoop filter with multiple (>1) holders of the requested data. (Count)
system.cpu.l1bus.snoop_filter.totSnoops             0                       # Total number of snoops made to the snoop filter. (Count)
system.cpu.l1bus.snoop_filter.hitSingleSnoops            0                       # Number of snoops hitting in the snoop filter with a single holder of the requested data. (Count)
system.cpu.l1bus.snoop_filter.hitMultiSnoops            0                       # Number of snoops hitting in the snoop filter with multiple (>1) holders of the requested data. (Count)
system.cpu.l1cache.demandHits::cpu.inst          4811                       # number of demand (read+write) hits (Count)
system.cpu.l1cache.demandHits::cpu.data          1853                       # number of demand (read+write) hits (Count)
system.cpu.l1cache.demandHits::total             6664                       # number of demand (read+write) hits (Count)
system.cpu.l1cache.overallHits::cpu.inst         4811                       # number of overall hits (Count)
system.cpu.l1cache.overallHits::cpu.data         1853                       # number of overall hits (Count)
system.cpu.l1cache.overallHits::total            6664                       # number of overall hits (Count)
system.cpu.l1cache.demandMisses::cpu.inst          225                       # number of demand (read+write) misses (Count)
system.cpu.l1cache.demandMisses::cpu.data          127                       # number of demand (read+write) misses (Count)
system.cpu.l1cache.demandMisses::total            352                       # number of demand (read+write) misses (Count)
system.cpu.l1cache.overallMisses::cpu.inst          225                       # number of overall misses (Count)
system.cpu.l1cache.overallMisses::cpu.data          127                       # number of overall misses (Count)
system.cpu.l1cache.overallMisses::total           352                       # number of overall misses (Count)
system.cpu.l1cache.demandMissLatency::cpu.inst     15842500                       # number of demand (read+write) miss ticks (Tick)
system.cpu.l1cache.demandMissLatency::cpu.data      9158500                       # number of demand (read+write) miss ticks (Tick)
system.cpu.l1cache.demandMissLatency::total     25001000                       # number of demand (read+write) miss ticks (Tick)
system.cpu.l1cache.overallMissLatency::cpu.inst     15842500                       # number of overall miss ticks (Tick)
system.cpu.l1cache.overallMissLatency::cpu.data      9158500                       # number of overall miss ticks (Tick)
system.cpu.l1cache.overallMissLatency::total     25001000                       # number of overall miss ticks (Tick)
system.cpu.l1cache.demandAccesses::cpu.inst         5036                       # number of demand (read+write) accesses (Count)
system.cpu.l1cache.demandAccesses::cpu.data         1980                       # number of demand (read+write) accesses (Count)
system.cpu.l1cache.demandAccesses::total         7016                       # number of demand (read+write) accesses (Count)
system.cpu.l1cache.overallAccesses::cpu.inst         5036                       # number of overall (read+write) accesses (Count)
system.cpu.l1cache.overallAccesses::cpu.data         1980                       # number of overall (read+write) accesses (Count)
system.cpu.l1cache.overallAccesses::total         7016                       # number of overall (read+write) accesses (Count)
system.cpu.l1cache.demandMissRate::cpu.inst     0.044678                       # miss rate for demand accesses (Ratio)
system.cpu.l1cache.demandMissRate::cpu.data     0.064141                       # miss rate for demand accesses (Ratio)
system.cpu.l1cache.demandMissRate::total     0.050171                       # miss rate for demand accesses (Ratio)
system.cpu.l1cache.overallMissRate::cpu.inst     0.044678                       # miss rate for overall accesses (Ratio)
system.cpu.l1cache.overallMissRate::cpu.data     0.064141                       # miss rate for overall accesses (Ratio)
system.cpu.l1cache.overallMissRate::total     0.050171                       # miss rate for overall accesses (Ratio)
system.cpu.l1cache.demandAvgMissLatency::cpu.inst 70411.111111                       # average overall miss latency in ticks ((Tick/Count))
system.cpu.l1cache.demandAvgMissLatency::cpu.data 72114.173228                       # average overall miss latency in ticks ((Tick/Count))
system.cpu.l1cache.demandAvgMissLatency::total 71025.568182                       # average overall miss latency in ticks ((Tick/Count))
system.cpu.l1cache.overallAvgMissLatency::cpu.inst 70411.111111                       # average overall miss latency ((Tick/Count))
system.cpu.l1cache.overallAvgMissLatency::cpu.data 72114.173228                       # average overall miss latency ((Tick/Count))
system.cpu.l1cache.overallAvgMissLatency::total 71025.568182                       # average overall miss latency ((Tick/Count))
system.cpu.l1cache.blockedCycles::no_mshrs            0                       # number of cycles access was blocked (Cycle)
system.cpu.l1cache.blockedCycles::no_targets            0                       # number of cycles access was blocked (Cycle)
system.cpu.l1cache.blockedCauses::no_mshrs            0                       # number of times access was blocked (Count)
system.cpu.l1cache.blockedCauses::no_targets            0                       # number of times access was blocked (Count)
system.cpu.l1cache.avgBlocked::no_mshrs           nan                       # average number of cycles each access was blocked ((Cycle/Count))
system.cpu.l1cache.avgBlocked::no_targets          nan                       # average number of cycles each access was blocked ((Cycle/Count))
system.cpu.l1cache.writebacks::writebacks            1                       # number of writebacks (Count)
system.cpu.l1cache.writebacks::total                1                       # number of writebacks (Count)
system.cpu.l1cache.demandMshrMisses::cpu.inst          225                       # number of demand (read+write) MSHR misses (Count)
system.cpu.l1cache.demandMshrMisses::cpu.data          127                       # number of demand (read+write) MSHR misses (Count)
system.cpu.l1cache.demandMshrMisses::total          352                       # number of demand (read+write) MSHR misses (Count)
system.cpu.l1cache.overallMshrMisses::cpu.inst          225                       # number of overall MSHR misses (Count)
system.cpu.l1cache.overallMshrMisses::cpu.data          127                       # number of overall MSHR misses (Count)
system.cpu.l1cache.overallMshrMisses::total          352                       # number of overall MSHR misses (Count)
system.cpu.l1cache.demandMshrMissLatency::cpu.inst     15617500                       # number of demand (read+write) MSHR miss ticks (Tick)
system.cpu.l1cache.demandMshrMissLatency::cpu.data      9031500                       # number of demand (read+write) MSHR miss ticks (Tick)
system.cpu.l1cache.demandMshrMissLatency::total     24649000                       # number of demand (read+write) MSHR miss ticks (Tick)
system.cpu.l1cache.overallMshrMissLatency::cpu.inst     15617500                       # number of overall MSHR miss ticks (Tick)
system.cpu.l1cache.overallMshrMissLatency::cpu.data      9031500                       # number of overall MSHR miss ticks (Tick)
system.cpu.l1cache.overallMshrMissLatency::total     24649000                       # number of overall MSHR miss ticks (Tick)
system.cpu.l1cache.demandMshrMissRate::cpu.inst     0.044678                       # mshr miss ratio for demand accesses (Ratio)
system.cpu.l1cache.demandMshrMissRate::cpu.data     0.064141                       # mshr miss ratio for demand accesses (Ratio)
system.cpu.l1cache.demandMshrMissRate::total     0.050171                       # mshr miss ratio for demand accesses (Ratio)
system.cpu.l1cache.overallMshrMissRate::cpu.inst     0.044678                       # mshr miss ratio for overall accesses (Ratio)
system.cpu.l1cache.overallMshrMissRate::cpu.data     0.064141                       # mshr miss ratio for overall accesses (Ratio)
system.cpu.l1cache.overallMshrMissRate::total     0.050171                       # mshr miss ratio for overall accesses (Ratio)
system.cpu.l1cache.demandAvgMshrMissLatency::cpu.inst 69411.111111                       # average overall mshr miss latency ((Tick/Count))
system.cpu.l1cache.demandAvgMshrMissLatency::cpu.data 71114.173228                       # average overall mshr miss latency ((Tick/Count))
system.cpu.l1cache.demandAvgMshrMissLatency::total 70025.568182                       # average overall mshr miss latency ((Tick/Count))
system.cpu.l1cache.overallAvgMshrMissLatency::cpu.inst 69411.111111                       # average overall mshr miss latency ((Tick/Count))
system.cpu.l1cache.overallAvgMshrMissLatency::cpu.data 71114.173228                       # average overall mshr miss latency ((Tick/Count))
system.cpu.l1cache.overallAvgMshrMissLatency::total 70025.568182                       # average overall mshr miss latency ((Tick/Count))
system.cpu.l1cache.replacements                    13                       # number of replacements (Count)
system.cpu.l1cache.LoadLockedReq.hits::cpu.data           11                       # number of LoadLockedReq hits (Count)
system.cpu.l1cache.LoadLockedReq.hits::total           11                       # number of LoadLockedReq hits (Count)
system.cpu.l1cache.LoadLockedReq.accesses::cpu.data           11                       # number of LoadLockedReq accesses(hits+misses) (Count)
system.cpu.l1cache.LoadLockedReq.accesses::total           11                       # number of LoadLockedReq accesses(hits+misses) (Count)
system.cpu.l1cache.ReadReq.hits::cpu.inst         4811                       # number of ReadReq hits (Count)
system.cpu.l1cache.ReadReq.hits::cpu.data          970                       # number of ReadReq hits (Count)
system.cpu.l1cache.ReadReq.hits::total           5781                       # number of ReadReq hits (Count)
system.cpu.l1cache.ReadReq.misses::cpu.inst          225                       # number of ReadReq misses (Count)
system.cpu.l1cache.ReadReq.misses::cpu.data           85                       # number of ReadReq misses (Count)
system.cpu.l1cache.ReadReq.misses::total          310                       # number of ReadReq misses (Count)
system.cpu.l1cache.ReadReq.missLatency::cpu.inst     15842500                       # number of ReadReq miss ticks (Tick)
system.cpu.l1cache.ReadReq.missLatency::cpu.data      6082000                       # number of ReadReq miss ticks (Tick)
system.cpu.l1cache.ReadReq.missLatency::total     21924500                       # number of ReadReq miss ticks (Tick)
system.cpu.l1cache.ReadReq.accesses::cpu.inst         5036                       # number of ReadReq accesses(hits+misses) (Count)
system.cpu.l1cache.ReadReq.accesses::cpu.data         1055                       # number of ReadReq accesses(hits+misses) (Count)
system.cpu.l1cache.ReadReq.accesses::total         6091                       # number of ReadReq accesses(hits+misses) (Count)
system.cpu.l1cache.ReadReq.missRate::cpu.inst     0.044678                       # miss rate for ReadReq accesses (Ratio)
system.cpu.l1cache.ReadReq.missRate::cpu.data     0.080569                       # miss rate for ReadReq accesses (Ratio)
system.cpu.l1cache.ReadReq.missRate::total     0.050895                       # miss rate for ReadReq accesses (Ratio)
system.cpu.l1cache.ReadReq.avgMissLatency::cpu.inst 70411.111111                       # average ReadReq miss latency ((Tick/Count))
system.cpu.l1cache.ReadReq.avgMissLatency::cpu.data 71552.941176                       # average ReadReq miss latency ((Tick/Count))
system.cpu.l1cache.ReadReq.avgMissLatency::total 70724.193548                       # average ReadReq miss latency ((Tick/Count))
system.cpu.l1cache.ReadReq.mshrMisses::cpu.inst          225                       # number of ReadReq MSHR misses (Count)
system.cpu.l1cache.ReadReq.mshrMisses::cpu.data           85                       # number of ReadReq MSHR misses (Count)
system.cpu.l1cache.ReadReq.mshrMisses::total          310                       # number of ReadReq MSHR misses (Count)
system.cpu.l1cache.ReadReq.mshrMissLatency::cpu.inst     15617500                       # number of ReadReq MSHR miss ticks (Tick)
system.cpu.l1cache.ReadReq.mshrMissLatency::cpu.data      5997000                       # number of ReadReq MSHR miss ticks (Tick)
system.cpu.l1cache.ReadReq.mshrMissLatency::total     21614500                       # number of ReadReq MSHR miss ticks (Tick)
system.cpu.l1cache.ReadReq.mshrMissRate::cpu.inst     0.044678                       # mshr miss rate for ReadReq accesses (Ratio)
system.cpu.l1cache.ReadReq.mshrMissRate::cpu.data     0.080569                       # mshr miss rate for ReadReq accesses (Ratio)
system.cpu.l1cache.ReadReq.mshrMissRate::total     0.050895                       # mshr miss rate for ReadReq accesses (Ratio)
system.cpu.l1cache.ReadReq.avgMshrMissLatency::cpu.inst 69411.111111                       # average ReadReq mshr miss latency ((Tick/Count))
system.cpu.l1cache.ReadReq.avgMshrMissLatency::cpu.data 70552.941176                       # average ReadReq mshr miss latency ((Tick/Count))
system.cpu.l1cache.ReadReq.avgMshrMissLatency::total 69724.193548                       # average ReadReq mshr miss latency ((Tick/Count))
system.cpu.l1cache.StoreCondReq.hits::cpu.data           11                       # number of StoreCondReq hits (Count)
system.cpu.l1cache.StoreCondReq.hits::total           11                       # number of StoreCondReq hits (Count)
system.cpu.l1cache.StoreCondReq.accesses::cpu.data           11                       # number of StoreCondReq accesses(hits+misses) (Count)
system.cpu.l1cache.StoreCondReq.accesses::total           11                       # number of StoreCondReq accesses(hits+misses) (Count)
system.cpu.l1cache.WriteReq.hits::cpu.data          883                       # number of WriteReq hits (Count)
system.cpu.l1cache.WriteReq.hits::total           883                       # number of WriteReq hits (Count)
system.cpu.l1cache.WriteReq.misses::cpu.data           42                       # number of WriteReq misses (Count)
system.cpu.l1cache.WriteReq.misses::total           42                       # number of WriteReq misses (Count)
system.cpu.l1cache.WriteReq.missLatency::cpu.data      3076500                       # number of WriteReq miss ticks (Tick)
system.cpu.l1cache.WriteReq.missLatency::total      3076500                       # number of WriteReq miss ticks (Tick)
system.cpu.l1cache.WriteReq.accesses::cpu.data          925                       # number of WriteReq accesses(hits+misses) (Count)
system.cpu.l1cache.WriteReq.accesses::total          925                       # number of WriteReq accesses(hits+misses) (Count)
system.cpu.l1cache.WriteReq.missRate::cpu.data     0.045405                       # miss rate for WriteReq accesses (Ratio)
system.cpu.l1cache.WriteReq.missRate::total     0.045405                       # miss rate for WriteReq accesses (Ratio)
system.cpu.l1cache.WriteReq.avgMissLatency::cpu.data        73250                       # average WriteReq miss latency ((Tick/Count))
system.cpu.l1cache.WriteReq.avgMissLatency::total        73250                       # average WriteReq miss latency ((Tick/Count))
system.cpu.l1cache.WriteReq.mshrMisses::cpu.data           42                       # number of WriteReq MSHR misses (Count)
system.cpu.l1cache.WriteReq.mshrMisses::total           42                       # number of WriteReq MSHR misses (Count)
system.cpu.l1cache.WriteReq.mshrMissLatency::cpu.data      3034500                       # number of WriteReq MSHR miss ticks (Tick)
system.cpu.l1cache.WriteReq.mshrMissLatency::total      3034500                       # number of WriteReq MSHR miss ticks (Tick)
system.cpu.l1cache.WriteReq.mshrMissRate::cpu.data     0.045405                       # mshr miss rate for WriteReq accesses (Ratio)
system.cpu.l1cache.WriteReq.mshrMissRate::total     0.045405                       # mshr miss rate for WriteReq accesses (Ratio)
system.cpu.l1cache.WriteReq.avgMshrMissLatency::cpu.data        72250                       # average WriteReq mshr miss latency ((Tick/Count))
system.cpu.l1cache.WriteReq.avgMshrMissLatency::total        72250                       # average WriteReq mshr miss latency ((Tick/Count))
system.cpu.l1cache.power_state.pwrStateResidencyTicks::UNDEFINED     38536000                       # Cumulative time (in ticks) in various power states (Tick)
system.cpu.l1cache.tags.tagsInUse          183.475196                       # Average ticks per tags in use ((Tick/Count))
system.cpu.l1cache.tags.totalRefs                7038                       # Total number of references to valid blocks. (Count)
system.cpu.l1cache.tags.sampledRefs               352                       # Sample count of references to valid blocks. (Count)
system.cpu.l1cache.tags.avgRefs             19.994318                       # Average number of references to valid blocks. ((Count/Count))
system.cpu.l1cache.tags.warmupTick              81000                       # The tick when the warmup percentage was hit. (Tick)
system.cpu.l1cache.tags.occupancies::cpu.inst   105.634695                       # Average occupied blocks per tick, per requestor ((Count/Tick))
system.cpu.l1cache.tags.occupancies::cpu.data    77.840501                       # Average occupied blocks per tick, per requestor ((Count/Tick))
system.cpu.l1cache.tags.avgOccs::cpu.inst     0.103159                       # Average percentage of cache occupancy ((Ratio/Tick))
system.cpu.l1cache.tags.avgOccs::cpu.data     0.076016                       # Average percentage of cache occupancy ((Ratio/Tick))
system.cpu.l1cache.tags.avgOccs::total       0.179175                       # Average percentage of cache occupancy ((Ratio/Tick))
system.cpu.l1cache.tags.occupanciesTaskId::1024          339                       # Occupied blocks per task id (Count)
system.cpu.l1cache.tags.ageTaskId_1024::0           87                       # Occupied blocks per task id, per block age (Count)
system.cpu.l1cache.tags.ageTaskId_1024::1          252                       # Occupied blocks per task id, per block age (Count)
system.cpu.l1cache.tags.ratioOccsTaskId::1024     0.331055                       # Ratio of occupied blocks and all blocks, per task id (Ratio)
system.cpu.l1cache.tags.tagAccesses             14428                       # Number of tag accesses (Count)
system.cpu.l1cache.tags.dataAccesses            14428                       # Number of data accesses (Count)
system.cpu.l1cache.tags.power_state.pwrStateResidencyTicks::UNDEFINED     38536000                       # Cumulative time (in ticks) in various power states (Tick)
system.cpu.mmu.alignFaults                          0                       # Number of MMU faults due to alignment restrictions (Count)
system.cpu.mmu.prefetchFaults                       0                       # Number of MMU faults due to prefetch (Count)
system.cpu.mmu.domainFaults                         0                       # Number of MMU faults due to domain restrictions (Count)
system.cpu.mmu.permsFaults                          0                       # Number of MMU faults due to permissions restrictions (Count)
system.cpu.mmu.dtb.readHits                         0                       # Read hits (Count)
system.cpu.mmu.dtb.readMisses                       0                       # Read misses (Count)
system.cpu.mmu.dtb.writeHits                        0                       # Write hits (Count)
system.cpu.mmu.dtb.writeMisses                      0                       # Write misses (Count)
system.cpu.mmu.dtb.inserts                          0                       # Number of times an entry is inserted into the TLB (Count)
system.cpu.mmu.dtb.flushTlb                         0                       # Number of times a TLB invalidation was requested (Count)
system.cpu.mmu.dtb.flushedEntries                   0                       # Number of entries that have been flushed from TLB (Count)
system.cpu.mmu.dtb.readAccesses                     0                       # Read accesses (Count)
system.cpu.mmu.dtb.writeAccesses                    0                       # Write accesses (Count)
system.cpu.mmu.dtb.hits                             0                       # Total TLB (inst and data) hits (Count)
system.cpu.mmu.dtb.misses                           0                       # Total TLB (inst and data) misses (Count)
system.cpu.mmu.dtb.accesses                         0                       # Total TLB (inst and data) accesses (Count)
system.cpu.mmu.dtb_walker.walks                     0                       # Table walker walks requested (Count)
system.cpu.mmu.dtb_walker.requestOrigin_Requested::Data            0                       # Table walker requests started/completed, data/inst (Count)
system.cpu.mmu.dtb_walker.requestOrigin_Requested::Inst            0                       # Table walker requests started/completed, data/inst (Count)
system.cpu.mmu.dtb_walker.requestOrigin_Requested::total            0                       # Table walker requests started/completed, data/inst (Count)
system.cpu.mmu.dtb_walker.requestOrigin_Completed::Data            0                       # Table walker requests started/completed, data/inst (Count)
system.cpu.mmu.dtb_walker.requestOrigin_Completed::Inst            0                       # Table walker requests started/completed, data/inst (Count)
system.cpu.mmu.dtb_walker.requestOrigin_Completed::total            0                       # Table walker requests started/completed, data/inst (Count)
system.cpu.mmu.dtb_walker.requestOrigin::total            0                       # Table walker requests started/completed, data/inst (Count)
system.cpu.mmu.dtb_walker.power_state.pwrStateResidencyTicks::UNDEFINED     38536000                       # Cumulative time (in ticks) in various power states (Tick)
system.cpu.mmu.itb.instHits                         0                       # Inst hits (Count)
system.cpu.mmu.itb.instMisses                       0                       # Inst misses (Count)
system.cpu.mmu.itb.inserts                          0                       # Number of times an entry is inserted into the TLB (Count)
system.cpu.mmu.itb.flushTlb                         0                       # Number of times a TLB invalidation was requested (Count)
system.cpu.mmu.itb.flushedEntries                   0                       # Number of entries that have been flushed from TLB (Count)
system.cpu.mmu.itb.instAccesses                     0                       # Inst accesses (Count)
system.cpu.mmu.itb.hits                             0                       # Total TLB (inst and data) hits (Count)
system.cpu.mmu.itb.misses                           0                       # Total TLB (inst and data) misses (Count)
system.cpu.mmu.itb.accesses                         0                       # Total TLB (inst and data) accesses (Count)
system.cpu.mmu.itb_walker.walks                     0                       # Table walker walks requested (Count)
system.cpu.mmu.itb_walker.requestOrigin_Requested::Data            0                       # Table walker requests started/completed, data/inst (Count)
system.cpu.mmu.itb_walker.requestOrigin_Requested::Inst            0                       # Table walker requests started/completed, data/inst (Count)
system.cpu.mmu.itb_walker.requestOrigin_Requested::total            0                       # Table walker requests started/completed, data/inst (Count)
system.cpu.mmu.itb_walker.requestOrigin_Completed::Data            0                       # Table walker requests started/completed, data/inst (Count)
system.cpu.mmu.itb_walker.requestOrigin_Completed::Inst            0                       # Table walker requests started/completed, data/inst (Count)
system.cpu.mmu.itb_walker.requestOrigin_Completed::total            0                       # Table walker requests started/completed, data/inst (Count)
system.cpu.mmu.itb_walker.requestOrigin::total            0                       # Table walker requests started/completed, data/inst (Count)
system.cpu.mmu.itb_walker.power_state.pwrStateResidencyTicks::UNDEFINED     38536000                       # Cumulative time (in ticks) in various power states (Tick)
system.cpu.mmu.l2_shared.instHits                   0                       # Inst hits (Count)
system.cpu.mmu.l2_shared.instMisses                 0                       # Inst misses (Count)
system.cpu.mmu.l2_shared.inserts                    0                       # Number of times an entry is inserted into the TLB (Count)
system.cpu.mmu.l2_shared.flushTlb                   0                       # Number of times a TLB invalidation was requested (Count)
system.cpu.mmu.l2_shared.flushedEntries             0                       # Number of entries that have been flushed from TLB (Count)
system.cpu.mmu.l2_shared.instAccesses               0                       # Inst accesses (Count)
system.cpu.mmu.l2_shared.hits                       0                       # Total TLB (inst and data) hits (Count)
system.cpu.mmu.l2_shared.misses                     0                       # Total TLB (inst and data) misses (Count)
system.cpu.mmu.l2_shared.accesses                   0                       # Total TLB (inst and data) accesses (Count)
system.cpu.mmu.stage2_dtb.readHits                  0                       # Read hits (Count)
system.cpu.mmu.stage2_dtb.readMisses                0                       # Read misses (Count)
system.cpu.mmu.stage2_dtb.writeHits                 0                       # Write hits (Count)
system.cpu.mmu.stage2_dtb.writeMisses               0                       # Write misses (Count)
system.cpu.mmu.stage2_dtb.inserts                   0                       # Number of times an entry is inserted into the TLB (Count)
system.cpu.mmu.stage2_dtb.flushTlb                  0                       # Number of times a TLB invalidation was requested (Count)
system.cpu.mmu.stage2_dtb.flushedEntries            0                       # Number of entries that have been flushed from TLB (Count)
system.cpu.mmu.stage2_dtb.readAccesses              0                       # Read accesses (Count)
system.cpu.mmu.stage2_dtb.writeAccesses             0                       # Write accesses (Count)
system.cpu.mmu.stage2_dtb.hits                      0                       # Total TLB (inst and data) hits (Count)
system.cpu.mmu.stage2_dtb.misses                    0                       # Total TLB (inst and data) misses (Count)
system.cpu.mmu.stage2_dtb.accesses                  0                       # Total TLB (inst and data) accesses (Count)
system.cpu.mmu.stage2_dtb_walker.walks              0                       # Table walker walks requested (Count)
system.cpu.mmu.stage2_dtb_walker.requestOrigin_Requested::Data            0                       # Table walker requests started/completed, data/inst (Count)
system.cpu.mmu.stage2_dtb_walker.requestOrigin_Requested::Inst            0                       # Table walker requests started/completed, data/inst (Count)
system.cpu.mmu.stage2_dtb_walker.requestOrigin_Requested::total            0                       # Table walker requests started/completed, data/inst (Count)
system.cpu.mmu.stage2_dtb_walker.requestOrigin_Completed::Data            0                       # Table walker requests started/completed, data/inst (Count)
system.cpu.mmu.stage2_dtb_walker.requestOrigin_Completed::Inst            0                       # Table walker requests started/completed, data/inst (Count)
system.cpu.mmu.stage2_dtb_walker.requestOrigin_Completed::total            0                       # Table walker requests started/completed, data/inst (Count)
system.cpu.mmu.stage2_dtb_walker.requestOrigin::total            0                       # Table walker requests started/completed, data/inst (Count)
system.cpu.mmu.stage2_dtb_walker.power_state.pwrStateResidencyTicks::UNDEFINED     38536000                       # Cumulative time (in ticks) in various power states (Tick)
system.cpu.mmu.stage2_itb.instHits                  0                       # Inst hits (Count)
system.cpu.mmu.stage2_itb.instMisses                0                       # Inst misses (Count)
system.cpu.mmu.stage2_itb.inserts                   0                       # Number of times an entry is inserted into the TLB (Count)
system.cpu.mmu.stage2_itb.flushTlb                  0                       # Number of times a TLB invalidation was requested (Count)
system.cpu.mmu.stage2_itb.flushedEntries            0                       # Number of entries that have been flushed from TLB (Count)
system.cpu.mmu.stage2_itb.instAccesses              0                       # Inst accesses (Count)
system.cpu.mmu.stage2_itb.hits                      0                       # Total TLB (inst and data) hits (Count)
system.cpu.mmu.stage2_itb.misses                    0                       # Total TLB (inst and data) misses (Count)
system.cpu.mmu.stage2_itb.accesses                  0                       # Total TLB (inst and data) accesses (Count)
system.cpu.mmu.stage2_itb_walker.walks              0                       # Table walker walks requested (Count)
system.cpu.mmu.stage2_itb_walker.requestOrigin_Requested::Data            0                       # Table walker requests started/completed, data/inst (Count)
system.cpu.mmu.stage2_itb_walker.requestOrigin_Requested::Inst            0                       # Table walker requests started/completed, data/inst (Count)
system.cpu.mmu.stage2_itb_walker.requestOrigin_Requested::total            0                       # Table walker requests started/completed, data/inst (Count)
system.cpu.mmu.stage2_itb_walker.requestOrigin_Completed::Data            0                       # Table walker requests started/completed, data/inst (Count)
system.cpu.mmu.stage2_itb_walker.requestOrigin_Completed::Inst            0                       # Table walker requests started/completed, data/inst (Count)
system.cpu.mmu.stage2_itb_walker.requestOrigin_Completed::total            0                       # Table walker requests started/completed, data/inst (Count)
system.cpu.mmu.stage2_itb_walker.requestOrigin::total            0                       # Table walker requests started/completed, data/inst (Count)
system.cpu.mmu.stage2_itb_walker.power_state.pwrStateResidencyTicks::UNDEFINED     38536000                       # Cumulative time (in ticks) in various power states (Tick)
system.cpu.power_state.pwrStateResidencyTicks::ON     38536000                       # Cumulative time (in ticks) in various power states (Tick)
system.cpu.thread_0.numInsts                        0                       # Number of Instructions committed (Count)
system.cpu.thread_0.numOps                          0                       # Number of Ops committed (Count)
system.cpu.thread_0.numMemRefs                      0                       # Number of Memory References (Count)
system.cpu.workload.numSyscalls                    13                       # Number of system calls (Count)
system.l2cache.demandMisses::cpu.inst             225                       # number of demand (read+write) misses (Count)
system.l2cache.demandMisses::cpu.data             127                       # number of demand (read+write) misses (Count)
system.l2cache.demandMisses::total                352                       # number of demand (read+write) misses (Count)
system.l2cache.overallMisses::cpu.inst            225                       # number of overall misses (Count)
system.l2cache.overallMisses::cpu.data            127                       # number of overall misses (Count)
system.l2cache.overallMisses::total               352                       # number of overall misses (Count)
system.l2cache.demandMissLatency::cpu.inst     15280000                       # number of demand (read+write) miss ticks (Tick)
system.l2cache.demandMissLatency::cpu.data      8841000                       # number of demand (read+write) miss ticks (Tick)
system.l2cache.demandMissLatency::total      24121000                       # number of demand (read+write) miss ticks (Tick)
system.l2cache.overallMissLatency::cpu.inst     15280000                       # number of overall miss ticks (Tick)
system.l2cache.overallMissLatency::cpu.data      8841000                       # number of overall miss ticks (Tick)
system.l2cache.overallMissLatency::total     24121000                       # number of overall miss ticks (Tick)
system.l2cache.demandAccesses::cpu.inst           225                       # number of demand (read+write) accesses (Count)
system.l2cache.demandAccesses::cpu.data           127                       # number of demand (read+write) accesses (Count)
system.l2cache.demandAccesses::total              352                       # number of demand (read+write) accesses (Count)
system.l2cache.overallAccesses::cpu.inst          225                       # number of overall (read+write) accesses (Count)
system.l2cache.overallAccesses::cpu.data          127                       # number of overall (read+write) accesses (Count)
system.l2cache.overallAccesses::total             352                       # number of overall (read+write) accesses (Count)
system.l2cache.demandMissRate::cpu.inst             1                       # miss rate for demand accesses (Ratio)
system.l2cache.demandMissRate::cpu.data             1                       # miss rate for demand accesses (Ratio)
system.l2cache.demandMissRate::total                1                       # miss rate for demand accesses (Ratio)
system.l2cache.overallMissRate::cpu.inst            1                       # miss rate for overall accesses (Ratio)
system.l2cache.overallMissRate::cpu.data            1                       # miss rate for overall accesses (Ratio)
system.l2cache.overallMissRate::total               1                       # miss rate for overall accesses (Ratio)
system.l2cache.demandAvgMissLatency::cpu.inst 67911.111111                       # average overall miss latency in ticks ((Tick/Count))
system.l2cache.demandAvgMissLatency::cpu.data 69614.173228                       # average overall miss latency in ticks ((Tick/Count))
system.l2cache.demandAvgMissLatency::total 68525.568182                       # average overall miss latency in ticks ((Tick/Count))
system.l2cache.overallAvgMissLatency::cpu.inst 67911.111111                       # average overall miss latency ((Tick/Count))
system.l2cache.overallAvgMissLatency::cpu.data 69614.173228                       # average overall miss latency ((Tick/Count))
system.l2cache.overallAvgMissLatency::total 68525.568182                       # average overall miss latency ((Tick/Count))
system.l2cache.blockedCycles::no_mshrs              0                       # number of cycles access was blocked (Cycle)
system.l2cache.blockedCycles::no_targets            0                       # number of cycles access was blocked (Cycle)
system.l2cache.blockedCauses::no_mshrs              0                       # number of times access was blocked (Count)
system.l2cache.blockedCauses::no_targets            0                       # number of times access was blocked (Count)
system.l2cache.avgBlocked::no_mshrs               nan                       # average number of cycles each access was blocked ((Cycle/Count))
system.l2cache.avgBlocked::no_targets             nan                       # average number of cycles each access was blocked ((Cycle/Count))
system.l2cache.demandMshrMisses::cpu.inst          225                       # number of demand (read+write) MSHR misses (Count)
system.l2cache.demandMshrMisses::cpu.data          127                       # number of demand (read+write) MSHR misses (Count)
system.l2cache.demandMshrMisses::total            352                       # number of demand (read+write) MSHR misses (Count)
system.l2cache.overallMshrMisses::cpu.inst          225                       # number of overall MSHR misses (Count)
system.l2cache.overallMshrMisses::cpu.data          127                       # number of overall MSHR misses (Count)
system.l2cache.overallMshrMisses::total           352                       # number of overall MSHR misses (Count)
system.l2cache.demandMshrMissLatency::cpu.inst     13030000                       # number of demand (read+write) MSHR miss ticks (Tick)
system.l2cache.demandMshrMissLatency::cpu.data      7571000                       # number of demand (read+write) MSHR miss ticks (Tick)
system.l2cache.demandMshrMissLatency::total     20601000                       # number of demand (read+write) MSHR miss ticks (Tick)
system.l2cache.overallMshrMissLatency::cpu.inst     13030000                       # number of overall MSHR miss ticks (Tick)
system.l2cache.overallMshrMissLatency::cpu.data      7571000                       # number of overall MSHR miss ticks (Tick)
system.l2cache.overallMshrMissLatency::total     20601000                       # number of overall MSHR miss ticks (Tick)
system.l2cache.demandMshrMissRate::cpu.inst            1                       # mshr miss ratio for demand accesses (Ratio)
system.l2cache.demandMshrMissRate::cpu.data            1                       # mshr miss ratio for demand accesses (Ratio)
system.l2cache.demandMshrMissRate::total            1                       # mshr miss ratio for demand accesses (Ratio)
system.l2cache.overallMshrMissRate::cpu.inst            1                       # mshr miss ratio for overall accesses (Ratio)
system.l2cache.overallMshrMissRate::cpu.data            1                       # mshr miss ratio for overall accesses (Ratio)
system.l2cache.overallMshrMissRate::total            1                       # mshr miss ratio for overall accesses (Ratio)
system.l2cache.demandAvgMshrMissLatency::cpu.inst 57911.111111                       # average overall mshr miss latency ((Tick/Count))
system.l2cache.demandAvgMshrMissLatency::cpu.data 59614.173228                       # average overall mshr miss latency ((Tick/Count))
system.l2cache.demandAvgMshrMissLatency::total 58525.568182                       # average overall mshr miss latency ((Tick/Count))
system.l2cache.overallAvgMshrMissLatency::cpu.inst 57911.111111                       # average overall mshr miss latency ((Tick/Count))
system.l2cache.overallAvgMshrMissLatency::cpu.data 59614.173228                       # average overall mshr miss latency ((Tick/Count))
system.l2cache.overallAvgMshrMissLatency::total 58525.568182                       # average overall mshr miss latency ((Tick/Count))
system.l2cache.replacements                         0                       # number of replacements (Count)
system.l2cache.ReadExReq.misses::cpu.data           42                       # number of ReadExReq misses (Count)
system.l2cache.ReadExReq.misses::total             42                       # number of ReadExReq misses (Count)
system.l2cache.ReadExReq.missLatency::cpu.data      2971500                       # number of ReadExReq miss ticks (Tick)
system.l2cache.ReadExReq.missLatency::total      2971500                       # number of ReadExReq miss ticks (Tick)
system.l2cache.ReadExReq.accesses::cpu.data           42                       # number of ReadExReq accesses(hits+misses) (Count)
system.l2cache.ReadExReq.accesses::total           42                       # number of ReadExReq accesses(hits+misses) (Count)
system.l2cache.ReadExReq.missRate::cpu.data            1                       # miss rate for ReadExReq accesses (Ratio)
system.l2cache.ReadExReq.missRate::total            1                       # miss rate for ReadExReq accesses (Ratio)
system.l2cache.ReadExReq.avgMissLatency::cpu.data        70750                       # average ReadExReq miss latency ((Tick/Count))
system.l2cache.ReadExReq.avgMissLatency::total        70750                       # average ReadExReq miss latency ((Tick/Count))
system.l2cache.ReadExReq.mshrMisses::cpu.data           42                       # number of ReadExReq MSHR misses (Count)
system.l2cache.ReadExReq.mshrMisses::total           42                       # number of ReadExReq MSHR misses (Count)
system.l2cache.ReadExReq.mshrMissLatency::cpu.data      2551500                       # number of ReadExReq MSHR miss ticks (Tick)
system.l2cache.ReadExReq.mshrMissLatency::total      2551500                       # number of ReadExReq MSHR miss ticks (Tick)
system.l2cache.ReadExReq.mshrMissRate::cpu.data            1                       # mshr miss rate for ReadExReq accesses (Ratio)
system.l2cache.ReadExReq.mshrMissRate::total            1                       # mshr miss rate for ReadExReq accesses (Ratio)
system.l2cache.ReadExReq.avgMshrMissLatency::cpu.data        60750                       # average ReadExReq mshr miss latency ((Tick/Count))
system.l2cache.ReadExReq.avgMshrMissLatency::total        60750                       # average ReadExReq mshr miss latency ((Tick/Count))
system.l2cache.ReadSharedReq.misses::cpu.inst          225                       # number of ReadSharedReq misses (Count)
system.l2cache.ReadSharedReq.misses::cpu.data           85                       # number of ReadSharedReq misses (Count)
system.l2cache.ReadSharedReq.misses::total          310                       # number of ReadSharedReq misses (Count)
system.l2cache.ReadSharedReq.missLatency::cpu.inst     15280000                       # number of ReadSharedReq miss ticks (Tick)
system.l2cache.ReadSharedReq.missLatency::cpu.data      5869500                       # number of ReadSharedReq miss ticks (Tick)
system.l2cache.ReadSharedReq.missLatency::total     21149500                       # number of ReadSharedReq miss ticks (Tick)
system.l2cache.ReadSharedReq.accesses::cpu.inst          225                       # number of ReadSharedReq accesses(hits+misses) (Count)
system.l2cache.ReadSharedReq.accesses::cpu.data           85                       # number of ReadSharedReq accesses(hits+misses) (Count)
system.l2cache.ReadSharedReq.accesses::total          310                       # number of ReadSharedReq accesses(hits+misses) (Count)
system.l2cache.ReadSharedReq.missRate::cpu.inst            1                       # miss rate for ReadSharedReq accesses (Ratio)
system.l2cache.ReadSharedReq.missRate::cpu.data            1                       # miss rate for ReadSharedReq accesses (Ratio)
system.l2cache.ReadSharedReq.missRate::total            1                       # miss rate for ReadSharedReq accesses (Ratio)
system.l2cache.ReadSharedReq.avgMissLatency::cpu.inst 67911.111111                       # average ReadSharedReq miss latency ((Tick/Count))
system.l2cache.ReadSharedReq.avgMissLatency::cpu.data 69052.941176                       # average ReadSharedReq miss latency ((Tick/Count))
system.l2cache.ReadSharedReq.avgMissLatency::total 68224.193548                       # average ReadSharedReq miss latency ((Tick/Count))
system.l2cache.ReadSharedReq.mshrMisses::cpu.inst          225                       # number of ReadSharedReq MSHR misses (Count)
system.l2cache.ReadSharedReq.mshrMisses::cpu.data           85                       # number of ReadSharedReq MSHR misses (Count)
system.l2cache.ReadSharedReq.mshrMisses::total          310                       # number of ReadSharedReq MSHR misses (Count)
system.l2cache.ReadSharedReq.mshrMissLatency::cpu.inst     13030000                       # number of ReadSharedReq MSHR miss ticks (Tick)
system.l2cache.ReadSharedReq.mshrMissLatency::cpu.data      5019500                       # number of ReadSharedReq MSHR miss ticks (Tick)
system.l2cache.ReadSharedReq.mshrMissLatency::total     18049500                       # number of ReadSharedReq MSHR miss ticks (Tick)
system.l2cache.ReadSharedReq.mshrMissRate::cpu.inst            1                       # mshr miss rate for ReadSharedReq accesses (Ratio)
system.l2cache.ReadSharedReq.mshrMissRate::cpu.data            1                       # mshr miss rate for ReadSharedReq accesses (Ratio)
system.l2cache.ReadSharedReq.mshrMissRate::total            1                       # mshr miss rate for ReadSharedReq accesses (Ratio)
system.l2cache.ReadSharedReq.avgMshrMissLatency::cpu.inst 57911.111111                       # average ReadSharedReq mshr miss latency ((Tick/Count))
system.l2cache.ReadSharedReq.avgMshrMissLatency::cpu.data 59052.941176                       # average ReadSharedReq mshr miss latency ((Tick/Count))
system.l2cache.ReadSharedReq.avgMshrMissLatency::total 58224.193548                       # average ReadSharedReq mshr miss latency ((Tick/Count))
system.l2cache.WritebackDirty.hits::writebacks            1                       # number of WritebackDirty hits (Count)
system.l2cache.WritebackDirty.hits::total            1                       # number of WritebackDirty hits (Count)
system.l2cache.WritebackDirty.accesses::writebacks            1                       # number of WritebackDirty accesses(hits+misses) (Count)
system.l2cache.WritebackDirty.accesses::total            1                       # number of WritebackDirty accesses(hits+misses) (Count)
system.l2cache.power_state.pwrStateResidencyTicks::UNDEFINED     38536000                       # Cumulative time (in ticks) in various power states (Tick)
system.l2cache.tags.tagsInUse              186.762525                       # Average ticks per tags in use ((Tick/Count))
system.l2cache.tags.totalRefs                     365                       # Total number of references to valid blocks. (Count)
system.l2cache.tags.sampledRefs                   352                       # Sample count of references to valid blocks. (Count)
system.l2cache.tags.avgRefs                  1.036932                       # Average number of references to valid blocks. ((Count/Count))
system.l2cache.tags.warmupTick                  71000                       # The tick when the warmup percentage was hit. (Tick)
system.l2cache.tags.occupancies::cpu.inst   107.722107                       # Average occupied blocks per tick, per requestor ((Count/Tick))
system.l2cache.tags.occupancies::cpu.data    79.040418                       # Average occupied blocks per tick, per requestor ((Count/Tick))
system.l2cache.tags.avgOccs::cpu.inst        0.026299                       # Average percentage of cache occupancy ((Ratio/Tick))
system.l2cache.tags.avgOccs::cpu.data        0.019297                       # Average percentage of cache occupancy ((Ratio/Tick))
system.l2cache.tags.avgOccs::total           0.045596                       # Average percentage of cache occupancy ((Ratio/Tick))
system.l2cache.tags.occupanciesTaskId::1024          352                       # Occupied blocks per task id (Count)
system.l2cache.tags.ageTaskId_1024::0              87                       # Occupied blocks per task id, per block age (Count)
system.l2cache.tags.ageTaskId_1024::1             265                       # Occupied blocks per task id, per block age (Count)
system.l2cache.tags.ratioOccsTaskId::1024     0.085938                       # Ratio of occupied blocks and all blocks, per task id (Ratio)
system.l2cache.tags.tagAccesses                  3272                       # Number of tag accesses (Count)
system.l2cache.tags.dataAccesses                 3272                       # Number of data accesses (Count)
system.l2cache.tags.power_state.pwrStateResidencyTicks::UNDEFINED     38536000                       # Cumulative time (in ticks) in various power states (Tick)
system.mem_ctrl.avgPriority_cpu.inst::samples       225.00                       # Average QoS priority value for accepted requests (Count)
system.mem_ctrl.avgPriority_cpu.data::samples       127.00                       # Average QoS priority value for accepted requests (Count)
system.mem_ctrl.priorityMinLatency       0.000000017492                       # per QoS priority minimum request to response latency (Second)
system.mem_ctrl.priorityMaxLatency       0.000000756012                       # per QoS priority maximum request to response latency (Second)
system.mem_ctrl.numReadWriteTurnArounds             0                       # Number of turnarounds from READ to WRITE (Count)
system.mem_ctrl.numWriteReadTurnArounds             0                       # Number of turnarounds from WRITE to READ (Count)
system.mem_ctrl.numStayReadState                  712                       # Number of times bus staying in READ state (Count)
system.mem_ctrl.numStayWriteState                   0                       # Number of times bus staying in WRITE state (Count)
system.mem_ctrl.readReqs                          352                       # Number of read requests accepted (Count)
system.mem_ctrl.writeReqs                           0                       # Number of write requests accepted (Count)
system.mem_ctrl.readBursts                        352                       # Number of controller read bursts, including those serviced by the write queue (Count)
system.mem_ctrl.writeBursts                         0                       # Number of controller write bursts, including those merged in the write queue (Count)
system.mem_ctrl.servicedByWrQ                       0                       # Number of controller read bursts serviced by the write queue (Count)
system.mem_ctrl.mergedWrBursts                      0                       # Number of controller write bursts merged with an existing one (Count)
system.mem_ctrl.neitherReadNorWriteReqs             0                       # Number of requests that are neither read nor write (Count)
system.mem_ctrl.avgRdQLen                        1.00                       # Average read queue length when enqueuing ((Count/Tick))
system.mem_ctrl.avgWrQLen                        0.00                       # Average write queue length when enqueuing ((Count/Tick))
system.mem_ctrl.numRdRetry                          0                       # Number of times read queue was full causing retry (Count)
system.mem_ctrl.numWrRetry                          0                       # Number of times write queue was full causing retry (Count)
system.mem_ctrl.readPktSize::0                      0                       # Read request sizes (log2) (Count)
system.mem_ctrl.readPktSize::1                      0                       # Read request sizes (log2) (Count)
system.mem_ctrl.readPktSize::2                      0                       # Read request sizes (log2) (Count)
system.mem_ctrl.readPktSize::3                      0                       # Read request sizes (log2) (Count)
system.mem_ctrl.readPktSize::4                      0                       # Read request sizes (log2) (Count)
system.mem_ctrl.readPktSize::5                      0                       # Read request sizes (log2) (Count)
system.mem_ctrl.readPktSize::6                    352                       # Read request sizes (log2) (Count)
system.mem_ctrl.writePktSize::0                     0                       # Write request sizes (log2) (Count)
system.mem_ctrl.writePktSize::1                     0                       # Write request sizes (log2) (Count)
system.mem_ctrl.writePktSize::2                     0                       # Write request sizes (log2) (Count)
system.mem_ctrl.writePktSize::3                     0                       # Write request sizes (log2) (Count)
system.mem_ctrl.writePktSize::4                     0                       # Write request sizes (log2) (Count)
system.mem_ctrl.writePktSize::5                     0                       # Write request sizes (log2) (Count)
system.mem_ctrl.writePktSize::6                     0                       # Write request sizes (log2) (Count)
system.mem_ctrl.rdQLenPdf::0                      352                       # What read queue length does an incoming req see (Count)
system.mem_ctrl.rdQLenPdf::1                        0                       # What read queue length does an incoming req see (Count)
system.mem_ctrl.rdQLenPdf::2                        0                       # What read queue length does an incoming req see (Count)
system.mem_ctrl.rdQLenPdf::3                        0                       # What read queue length does an incoming req see (Count)
system.mem_ctrl.rdQLenPdf::4                        0                       # What read queue length does an incoming req see (Count)
system.mem_ctrl.rdQLenPdf::5                        0                       # What read queue length does an incoming req see (Count)
system.mem_ctrl.rdQLenPdf::6                        0                       # What read queue length does an incoming req see (Count)
system.mem_ctrl.rdQLenPdf::7                        0                       # What read queue length does an incoming req see (Count)
system.mem_ctrl.rdQLenPdf::8                        0                       # What read queue length does an incoming req see (Count)
system.mem_ctrl.rdQLenPdf::9                        0                       # What read queue length does an incoming req see (Count)
system.mem_ctrl.rdQLenPdf::10                       0                       # What read queue length does an incoming req see (Count)
system.mem_ctrl.rdQLenPdf::11                       0                       # What read queue length does an incoming req see (Count)
system.mem_ctrl.rdQLenPdf::12                       0                       # What read queue length does an incoming req see (Count)
system.mem_ctrl.rdQLenPdf::13                       0                       # What read queue length does an incoming req see (Count)
system.mem_ctrl.rdQLenPdf::14                       0                       # What read queue length does an incoming req see (Count)
system.mem_ctrl.rdQLenPdf::15                       0                       # What read queue length does an incoming req see (Count)
system.mem_ctrl.rdQLenPdf::16                       0                       # What read queue length does an incoming req see (Count)
system.mem_ctrl.rdQLenPdf::17                       0                       # What read queue length does an incoming req see (Count)
system.mem_ctrl.rdQLenPdf::18                       0                       # What read queue length does an incoming req see (Count)
system.mem_ctrl.rdQLenPdf::19                       0                       # What read queue length does an incoming req see (Count)
system.mem_ctrl.rdQLenPdf::20                       0                       # What read queue length does an incoming req see (Count)
system.mem_ctrl.rdQLenPdf::21                       0                       # What read queue length does an incoming req see (Count)
system.mem_ctrl.rdQLenPdf::22                       0                       # What read queue length does an incoming req see (Count)
system.mem_ctrl.rdQLenPdf::23                       0                       # What read queue length does an incoming req see (Count)
system.mem_ctrl.rdQLenPdf::24                       0                       # What read queue length does an incoming req see (Count)
system.mem_ctrl.rdQLenPdf::25                       0                       # What read queue length does an incoming req see (Count)
system.mem_ctrl.rdQLenPdf::26                       0                       # What read queue length does an incoming req see (Count)
system.mem_ctrl.rdQLenPdf::27                       0                       # What read queue length does an incoming req see (Count)
system.mem_ctrl.rdQLenPdf::28                       0                       # What read queue length does an incoming req see (Count)
system.mem_ctrl.rdQLenPdf::29                       0                       # What read queue length does an incoming req see (Count)
system.mem_ctrl.rdQLenPdf::30                       0                       # What read queue length does an incoming req see (Count)
system.mem_ctrl.rdQLenPdf::31                       0                       # What read queue length does an incoming req see (Count)
[...]
system.mem_ctrl.dram.perBankRdBursts::3            33                       # Per bank write bursts (Count)
system.mem_ctrl.dram.perBankRdBursts::4            14                       # Per bank write bursts (Count)
system.mem_ctrl.dram.perBankRdBursts::5            25                       # Per bank write bursts (Count)
system.mem_ctrl.dram.perBankRdBursts::6            34                       # Per bank write bursts (Count)
system.mem_ctrl.dram.perBankRdBursts::7             0                       # Per bank write bursts (Count)
system.mem_ctrl.dram.perBankRdBursts::8             4                       # Per bank write bursts (Count)
system.mem_ctrl.dram.perBankRdBursts::9             5                       # Per bank write bursts (Count)
system.mem_ctrl.dram.perBankRdBursts::10            2                       # Per bank write bursts (Count)
system.mem_ctrl.dram.perBankRdBursts::11            0                       # Per bank write bursts (Count)
system.mem_ctrl.dram.perBankRdBursts::12            0                       # Per bank write bursts (Count)
system.mem_ctrl.dram.perBankRdBursts::13            3                       # Per bank write bursts (Count)
system.mem_ctrl.dram.perBankRdBursts::14            0                       # Per bank write bursts (Count)
system.mem_ctrl.dram.perBankRdBursts::15            6                       # Per bank write bursts (Count)
system.mem_ctrl.dram.perBankRdBursts::16           17                       # Per bank write bursts (Count)
system.mem_ctrl.dram.perBankRdBursts::17           19                       # Per bank write bursts (Count)
system.mem_ctrl.dram.perBankRdBursts::18            0                       # Per bank write bursts (Count)
system.mem_ctrl.dram.perBankRdBursts::19            0                       # Per bank write bursts (Count)
system.mem_ctrl.dram.perBankRdBursts::20            0                       # Per bank write bursts (Count)
system.mem_ctrl.dram.perBankRdBursts::21            6                       # Per bank write bursts (Count)
system.mem_ctrl.dram.perBankRdBursts::22            0                       # Per bank write bursts (Count)
system.mem_ctrl.dram.perBankRdBursts::23            9                       # Per bank write bursts (Count)
system.mem_ctrl.dram.perBankRdBursts::24            0                       # Per bank write bursts (Count)
system.mem_ctrl.dram.perBankRdBursts::25            1                       # Per bank write bursts (Count)
system.mem_ctrl.dram.perBankRdBursts::26           23                       # Per bank write bursts (Count)
system.mem_ctrl.dram.perBankRdBursts::27           44                       # Per bank write bursts (Count)
system.mem_ctrl.dram.perBankRdBursts::28            8                       # Per bank write bursts (Count)
system.mem_ctrl.dram.perBankRdBursts::29            2                       # Per bank write bursts (Count)
system.mem_ctrl.dram.perBankRdBursts::30            0                       # Per bank write bursts (Count)
system.mem_ctrl.dram.perBankRdBursts::31            0                       # Per bank write bursts (Count)
system.mem_ctrl.dram.perBankWrBursts::0             0                       # Per bank write bursts (Count)
system.mem_ctrl.dram.perBankWrBursts::1             0                       # Per bank write bursts (Count)
system.mem_ctrl.dram.perBankWrBursts::2             0                       # Per bank write bursts (Count)
system.mem_ctrl.dram.perBankWrBursts::3             0                       # Per bank write bursts (Count)
system.mem_ctrl.dram.perBankWrBursts::4             0                       # Per bank write bursts (Count)
system.mem_ctrl.dram.perBankWrBursts::5             0                       # Per bank write bursts (Count)
system.mem_ctrl.dram.perBankWrBursts::6             0                       # Per bank write bursts (Count)
system.mem_ctrl.dram.perBankWrBursts::7             0                       # Per bank write bursts (Count)
system.mem_ctrl.dram.perBankWrBursts::8             0                       # Per bank write bursts (Count)
system.mem_ctrl.dram.perBankWrBursts::9             0                       # Per bank write bursts (Count)
system.mem_ctrl.dram.perBankWrBursts::10            0                       # Per bank write bursts (Count)
system.mem_ctrl.dram.perBankWrBursts::11            0                       # Per bank write bursts (Count)
system.mem_ctrl.dram.perBankWrBursts::12            0                       # Per bank write bursts (Count)
system.mem_ctrl.dram.perBankWrBursts::13            0                       # Per bank write bursts (Count)
system.mem_ctrl.dram.perBankWrBursts::14            0                       # Per bank write bursts (Count)
system.mem_ctrl.dram.perBankWrBursts::15            0                       # Per bank write bursts (Count)
system.mem_ctrl.dram.perBankWrBursts::16            0                       # Per bank write bursts (Count)
system.mem_ctrl.dram.perBankWrBursts::17            0                       # Per bank write bursts (Count)
system.mem_ctrl.dram.perBankWrBursts::18            0                       # Per bank write bursts (Count)
system.mem_ctrl.dram.perBankWrBursts::19            0                       # Per bank write bursts (Count)
system.mem_ctrl.dram.perBankWrBursts::20            0                       # Per bank write bursts (Count)
system.mem_ctrl.dram.perBankWrBursts::21            0                       # Per bank write bursts (Count)
system.mem_ctrl.dram.perBankWrBursts::22            0                       # Per bank write bursts (Count)
system.mem_ctrl.dram.perBankWrBursts::23            0                       # Per bank write bursts (Count)
system.mem_ctrl.dram.perBankWrBursts::24            0                       # Per bank write bursts (Count)
system.mem_ctrl.dram.perBankWrBursts::25            0                       # Per bank write bursts (Count)
system.mem_ctrl.dram.perBankWrBursts::26            0                       # Per bank write bursts (Count)
system.mem_ctrl.dram.perBankWrBursts::27            0                       # Per bank write bursts (Count)
system.mem_ctrl.dram.perBankWrBursts::28            0                       # Per bank write bursts (Count)
system.mem_ctrl.dram.perBankWrBursts::29            0                       # Per bank write bursts (Count)
system.mem_ctrl.dram.perBankWrBursts::30            0                       # Per bank write bursts (Count)
system.mem_ctrl.dram.perBankWrBursts::31            0                       # Per bank write bursts (Count)
system.mem_ctrl.dram.totQLat                  2099600                       # Total ticks spent queuing (Tick)
system.mem_ctrl.dram.totBusLat                1172864                       # Total ticks spent in databus transfers (Tick)
system.mem_ctrl.dram.totMemAccLat             8256784                       # Total ticks spent from burst creation until serviced by the DRAM (Tick)
system.mem_ctrl.dram.avgQLat                  5964.77                       # Average queueing delay per DRAM burst ((Tick/Count))
system.mem_ctrl.dram.avgBusLat                3332.00                       # Average bus latency per DRAM burst ((Tick/Count))
system.mem_ctrl.dram.avgMemAccLat            23456.77                       # Average memory access latency per DRAM burst ((Tick/Count))
system.mem_ctrl.dram.readRowHits                  287                       # Number of row buffer hits during reads (Count)
system.mem_ctrl.dram.writeRowHits                   0                       # Number of row buffer hits during writes (Count)
system.mem_ctrl.dram.readRowHitRate             81.53                       # Row buffer hit rate for reads (Ratio)
system.mem_ctrl.dram.writeRowHitRate              nan                       # Row buffer hit rate for writes (Ratio)
system.mem_ctrl.dram.bytesPerActivate::samples           55                       # Bytes accessed per row activation (Byte)
system.mem_ctrl.dram.bytesPerActivate::mean   361.890909                       # Bytes accessed per row activation (Byte)
system.mem_ctrl.dram.bytesPerActivate::gmean   238.610993                       # Bytes accessed per row activation (Byte)
system.mem_ctrl.dram.bytesPerActivate::stdev   323.587167                       # Bytes accessed per row activation (Byte)
system.mem_ctrl.dram.bytesPerActivate::0-127           12     21.82%     21.82% # Bytes accessed per row activation (Byte)
system.mem_ctrl.dram.bytesPerActivate::128-255           14     25.45%     47.27% # Bytes accessed per row activation (Byte)
system.mem_ctrl.dram.bytesPerActivate::256-383           10     18.18%     65.45% # Bytes accessed per row activation (Byte)
system.mem_ctrl.dram.bytesPerActivate::384-511            3      5.45%     70.91% # Bytes accessed per row activation (Byte)
system.mem_ctrl.dram.bytesPerActivate::512-639            4      7.27%     78.18% # Bytes accessed per row activation (Byte)
system.mem_ctrl.dram.bytesPerActivate::640-767            3      5.45%     83.64% # Bytes accessed per row activation (Byte)
system.mem_ctrl.dram.bytesPerActivate::768-895            2      3.64%     87.27% # Bytes accessed per row activation (Byte)
system.mem_ctrl.dram.bytesPerActivate::1024-1151            7     12.73%    100.00% # Bytes accessed per row activation (Byte)
system.mem_ctrl.dram.bytesPerActivate::total           55                       # Bytes accessed per row activation (Byte)
system.mem_ctrl.dram.bytesRead                  22528                       # Total bytes read (Byte)
system.mem_ctrl.dram.bytesWritten                   0                       # Total bytes written (Byte)
system.mem_ctrl.dram.avgRdBW               584.596222                       # Average DRAM read bandwidth in MiBytes/s ((Byte/Second))
system.mem_ctrl.dram.avgWrBW                        0                       # Average DRAM write bandwidth in MiBytes/s ((Byte/Second))
system.mem_ctrl.dram.peakBW                  19207.00                       # Theoretical peak bandwidth in MiByte/s ((Byte/Second))
system.mem_ctrl.dram.busUtil                     3.04                       # Data bus utilization in percentage (Ratio)
system.mem_ctrl.dram.busUtilRead                 3.04                       # Data bus utilization in percentage for reads (Ratio)
system.mem_ctrl.dram.busUtilWrite                0.00                       # Data bus utilization in percentage for writes (Ratio)
system.mem_ctrl.dram.pageHitRate                81.53                       # Row buffer hit rate, read and write combined (Ratio)
system.mem_ctrl.dram.power_state.pwrStateResidencyTicks::UNDEFINED     38536000                       # Cumulative time (in ticks) in various power states (Tick)
system.mem_ctrl.dram.rank0.actEnergy     109156.320000                       # Energy for activate commands per rank (pJ) (Joule)
system.mem_ctrl.dram.rank0.preEnergy     128536.564800                       # Energy for precharge commands per rank (pJ) (Joule)
system.mem_ctrl.dram.rank0.readEnergy    938008.646400                       # Energy for read commands per rank (pJ) (Joule)
system.mem_ctrl.dram.rank0.writeEnergy              0                       # Energy for write commands per rank (pJ) (Joule)
system.mem_ctrl.dram.rank0.refreshEnergy 5541510.508800                       # Energy for refresh commands per rank (pJ) (Joule)
system.mem_ctrl.dram.rank0.actBackEnergy 30959779.132800                       # Energy for active background per rank (pJ) (Joule)
system.mem_ctrl.dram.rank0.preBackEnergy 1368156.518400                       # Energy for precharge background per rank (pJ) (Joule)
system.mem_ctrl.dram.rank0.actPowerDownEnergy            0                       # Energy for active power-down per rank (pJ) (Joule)
system.mem_ctrl.dram.rank0.prePowerDownEnergy            0                       # Energy for precharge power-down per rank (pJ) (Joule)
system.mem_ctrl.dram.rank0.selfRefreshEnergy            0                       # Energy for self refresh per rank (pJ) (Joule)
system.mem_ctrl.dram.rank0.totalEnergy   39045147.691200                       # Total energy per rank (pJ) (Joule)
system.mem_ctrl.dram.rank0.averagePower   1013.212261                       # Core power per rank (mW) (Watt)
system.mem_ctrl.dram.rank0.totalIdleTime            0                       # Total Idle time Per DRAM Rank (Tick)
system.mem_ctrl.dram.rank0.pwrStateTime::IDLE      1970820                       # Time in different power states (Tick)
system.mem_ctrl.dram.rank0.pwrStateTime::REF      1400000                       # Time in different power states (Tick)
system.mem_ctrl.dram.rank0.pwrStateTime::SREF            0                       # Time in different power states (Tick)
system.mem_ctrl.dram.rank0.pwrStateTime::PRE_PDN            0                       # Time in different power states (Tick)
system.mem_ctrl.dram.rank0.pwrStateTime::ACT     35165180                       # Time in different power states (Tick)
system.mem_ctrl.dram.rank0.pwrStateTime::ACT_PDN            0                       # Time in different power states (Tick)
system.mem_ctrl.dram.rank1.actEnergy     93562.560000                       # Energy for activate commands per rank (pJ) (Joule)
system.mem_ctrl.dram.rank1.preEnergy     99512.179200                       # Energy for precharge commands per rank (pJ) (Joule)
system.mem_ctrl.dram.rank1.readEnergy    542614.867200                       # Energy for read commands per rank (pJ) (Joule)
system.mem_ctrl.dram.rank1.writeEnergy              0                       # Energy for write commands per rank (pJ) (Joule)
system.mem_ctrl.dram.rank1.refreshEnergy 5541510.508800                       # Energy for refresh commands per rank (pJ) (Joule)
system.mem_ctrl.dram.rank1.actBackEnergy 29766568.608000                       # Energy for active background per rank (pJ) (Joule)
system.mem_ctrl.dram.rank1.preBackEnergy 2284973.644800                       # Energy for precharge background per rank (pJ) (Joule)
system.mem_ctrl.dram.rank1.actPowerDownEnergy            0                       # Energy for active power-down per rank (pJ) (Joule)
system.mem_ctrl.dram.rank1.prePowerDownEnergy            0                       # Energy for precharge power-down per rank (pJ) (Joule)
system.mem_ctrl.dram.rank1.selfRefreshEnergy            0                       # Energy for self refresh per rank (pJ) (Joule)
system.mem_ctrl.dram.rank1.totalEnergy   38328742.368000                       # Total energy per rank (pJ) (Joule)
system.mem_ctrl.dram.rank1.averagePower    994.621714                       # Core power per rank (mW) (Watt)
system.mem_ctrl.dram.rank1.totalIdleTime            0                       # Total Idle time Per DRAM Rank (Tick)
system.mem_ctrl.dram.rank1.pwrStateTime::IDLE      3388480                       # Time in different power states (Tick)
system.mem_ctrl.dram.rank1.pwrStateTime::REF      1400000                       # Time in different power states (Tick)
system.mem_ctrl.dram.rank1.pwrStateTime::SREF            0                       # Time in different power states (Tick)
system.mem_ctrl.dram.rank1.pwrStateTime::PRE_PDN            0                       # Time in different power states (Tick)
system.mem_ctrl.dram.rank1.pwrStateTime::ACT     33747520                       # Time in different power states (Tick)
system.mem_ctrl.dram.rank1.pwrStateTime::ACT_PDN            0                       # Time in different power states (Tick)
system.mem_ctrl.power_state.pwrStateResidencyTicks::UNDEFINED     38536000                       # Cumulative time (in ticks) in various power states (Tick)
system.membus.transDist::ReadResp                 310                       # Transaction distribution (Count)
system.membus.transDist::ReadExReq                 42                       # Transaction distribution (Count)
system.membus.transDist::ReadExResp                42                       # Transaction distribution (Count)
system.membus.transDist::ReadSharedReq            310                       # Transaction distribution (Count)
system.membus.pktCount_system.l2cache.mem_side_port::system.mem_ctrl.port          704                       # Packet count per connected requestor and responder (Count)
system.membus.pktCount::total                     704                       # Packet count per connected requestor and responder (Count)
system.membus.pktSize_system.l2cache.mem_side_port::system.mem_ctrl.port        22528                       # Cumulative packet size per connected requestor and responder (Byte)
system.membus.pktSize::total                    22528                       # Cumulative packet size per connected requestor and responder (Byte)
system.membus.snoops                                0                       # Total snoops (Count)
system.membus.snoopTraffic                          0                       # Total snoop traffic (Byte)
system.membus.snoopFanout::samples                352                       # Request fanout histogram (Count)
system.membus.snoopFanout::mean                     0                       # Request fanout histogram (Count)
system.membus.snoopFanout::stdev                    0                       # Request fanout histogram (Count)
system.membus.snoopFanout::underflows               0      0.00%      0.00% # Request fanout histogram (Count)
system.membus.snoopFanout::0                      352    100.00%    100.00% # Request fanout histogram (Count)
system.membus.snoopFanout::1                        0      0.00%    100.00% # Request fanout histogram (Count)
system.membus.snoopFanout::overflows                0      0.00%    100.00% # Request fanout histogram (Count)
system.membus.snoopFanout::min_value                0                       # Request fanout histogram (Count)
system.membus.snoopFanout::max_value                0                       # Request fanout histogram (Count)
system.membus.snoopFanout::total                  352                       # Request fanout histogram (Count)
system.membus.power_state.pwrStateResidencyTicks::UNDEFINED     38536000                       # Cumulative time (in ticks) in various power states (Tick)
system.membus.reqLayer0.occupancy              176000                       # Layer occupancy (ticks) (Tick)
system.membus.reqLayer0.utilization               0.0                       # Layer utilization (Ratio)
system.membus.respLayer0.occupancy             904216                       # Layer occupancy (ticks) (Tick)
system.membus.respLayer0.utilization              0.0                       # Layer utilization (Ratio)
system.membus.snoop_filter.totRequests            352                       # Total number of requests made to the snoop filter. (Count)
system.membus.snoop_filter.hitSingleRequests            0                       # Number of requests hitting in the snoop filter with a single holder of the requested data. (Count)
system.membus.snoop_filter.hitMultiRequests            0                       # Number of requests hitting in the snoop filter with multiple (>1) holders of the requested data. (Count)
system.membus.snoop_filter.totSnoops                0                       # Total number of snoops made to the snoop filter. (Count)
system.membus.snoop_filter.hitSingleSnoops            0                       # Number of snoops hitting in the snoop filter with a single holder of the requested data. (Count)
system.membus.snoop_filter.hitMultiSnoops            0                       # Number of snoops hitting in the snoop filter with multiple (>1) holders of the requested data. (Count)
system.workload.inst.arm                            0                       # number of arm instructions executed (Count)
system.workload.inst.quiesce                        0                       # number of quiesce instructions executed (Count)

---------- End Simulation Statistics   ----------
