
---------- Begin Simulation Statistics ----------
simSeconds                                   0.000034                       # Number of seconds simulated (Second)
simTicks                                     34012500                       # Number of ticks simulated (Tick)
finalTick                                    34012500                       # Number of ticks from beginning of simulation (restored from checkpoints and never reset) (Tick)
simFreq                                  1000000000000                       # The number of ticks per simulated second ((Tick/Second))
hostSeconds                                      0.02                       # Real time elapsed on the host (Second)
hostTickRate                               1388621927                       # The number of ticks simulated per host second (ticks/s) ((Tick/Second))
hostMemory                                    2253048                       # Number of bytes of host memory used (Byte)
simInsts                                         4994                       # Number of instructions simulated (Count)
simOps                                           5777                       # Number of ops (including micro ops) simulated (Count)
hostInstRate                                   202549                       # Simulator instruction rate (inst/s) ((Count/Second))
hostOpRate                                     234106                       # Simulator op (including micro ops) rate (op/s) ((Count/Second))
system.clk_domain.clock                           500                       # Clock period in ticks (Tick)
system.clk_domain.voltage_domain.voltage            1                       # Voltage in Volts (Volt)
system.cpu.numCycles                            68025                       # Number of cpu cycles simulated (Cycle)
system.cpu.cpi                              13.513111                       # CPI: cycles per instruction (core level) ((Cycle/Count))
system.cpu.ipc                               0.074002                       # IPC: instructions per cycle (core level) ((Count/Cycle))
system.cpu.numWorkItemsStarted                      0                       # Number of work items this cpu started (Count)
system.cpu.numWorkItemsCompleted                    0                       # Number of work items this cpu completed (Count)
system.cpu.commitStats0.numInsts                 5034                       # Number of instructions committed (thread level) (Count)
system.cpu.commitStats0.numOps                   5841                       # Number of ops (including micro ops) committed (thread level) (Count)
system.cpu.commitStats0.numInstsNotNOP              0                       # Number of instructions committed excluding NOPs or prefetches (Count)
system.cpu.commitStats0.numOpsNotNOP                0                       # Number of Ops (including micro ops) Simulated (Count)
system.cpu.commitStats0.cpi                 13.513111                       # CPI: cycles per instruction (thread level) ((Cycle/Count))
system.cpu.commitStats0.ipc                  0.074002                       # IPC: instructions per cycle (thread level) ((Count/Cycle))
system.cpu.commitStats0.numMemRefs                  0                       # Number of memory references committed (Count)
system.cpu.commitStats0.numFpInsts                  0                       # Number of float instructions (Count)
system.cpu.commitStats0.numIntInsts              4986                       # Number of integer instructions (Count)
system.cpu.commitStats0.numLoadInsts             1087                       # Number of load instructions (Count)
system.cpu.commitStats0.numStoreInsts             953                       # Number of store instructions (Count)
system.cpu.commitStats0.numVecInsts                 0                       # Number of vector instructions (Count)
system.cpu.commitStats0.committedInstType::No_OpClass            0      0.00%      0.00% # Class of committed instruction. (Count)
system.cpu.commitStats0.committedInstType::IntAlu         3794     64.95%     64.95% # Class of committed instruction. (Count)
system.cpu.commitStats0.committedInstType::IntMult            4      0.07%     65.02% # Class of committed instruction. (Count)
system.cpu.commitStats0.committedInstType::IntDiv            0      0.00%     65.02% # Class of committed instruction. (Count)
system.cpu.commitStats0.committedInstType::FloatAdd            0      0.00%     65.02% # Class of committed instruction. (Count)
system.cpu.commitStats0.committedInstType::FloatCmp            0      0.00%     65.02% # Class of committed instruction. (Count)
system.cpu.commitStats0.committedInstType::FloatCvt            0      0.00%     65.02% # Class of committed instruction. (Count)
system.cpu.commitStats0.committedInstType::FloatMult            0      0.00%     65.02% # Class of committed instruction. (Count)
system.cpu.commitStats0.committedInstType::FloatMultAcc            0      0.00%     65.02% # Class of committed instruction. (Count)
system.cpu.commitStats0.committedInstType::FloatDiv            0      0.00%     65.02% # Class of committed instruction. (Count)
system.cpu.commitStats0.committedInstType::FloatMisc            0      0.00%     65.02% # Class of committed instruction. (Count)
system.cpu.commitStats0.committedInstType::FloatSqrt            0      0.00%     65.02% # Class of committed instruction. (Count)
system.cpu.commitStats0.committedInstType::SimdAdd            0      0.00%     65.02% # Class of committed instruction. (Count)
system.cpu.commitStats0.committedInstType::SimdAddAcc            0      0.00%     65.02% # Class of committed instruction. (Count)
system.cpu.commitStats0.committedInstType::SimdAlu            0      0.00%     65.02% # Class of committed instruction. (Count)
system.cpu.commitStats0.committedInstType::SimdCmp            0      0.00%     65.02% # Class of committed instruction. (Count)
system.cpu.commitStats0.committedInstType::SimdCvt            0      0.00%     65.02% # Class of committed instruction. (Count)
system.cpu.commitStats0.committedInstType::SimdMisc            0      0.00%     65.02% # Class of committed instruction. (Count)
system.cpu.commitStats0.committedInstType::SimdMult            0      0.00%     65.02% # Class of committed instruction. (Count)
system.cpu.commitStats0.committedInstType::SimdMultAcc            0      0.00%     65.02% # Class of committed instruction. (Count)
system.cpu.commitStats0.committedInstType::SimdMatMultAcc            0      0.00%     65.02% # Class of committed instruction. (Count)
system.cpu.commitStats0.committedInstType::SimdShift            0      0.00%     65.02% # Class of committed instruction. (Count)
system.cpu.commitStats0.committedInstType::SimdShiftAcc            0      0.00%     65.02% # Class of committed instruction. (Count)
system.cpu.commitStats0.committedInstType::SimdDiv            0      0.00%     65.02% # Class of committed instruction. (Count)
system.cpu.commitStats0.committedInstType::SimdSqrt            0      0.00%     65.02% # Class of committed instruction. (Count)
system.cpu.commitStats0.committedInstType::SimdFloatAdd            0      0.00%     65.02% # Class of committed instruction. (Count)
system.cpu.commitStats0.committedInstType::SimdFloatAlu            0      0.00%     65.02% # Class of committed instruction. (Count)
system.cpu.commitStats0.committedInstType::SimdFloatCmp            0      0.00%     65.02% # Class of committed instruction. (Count)
system.cpu.commitStats0.committedInstType::SimdFloatCvt            0      0.00%     65.02% # Class of committed instruction. (Count)
system.cpu.commitStats0.committedInstType::SimdFloatDiv            0      0.00%     65.02% # Class of committed instruction. (Count)
system.cpu.commitStats0.committedInstType::SimdFloatMisc            3      0.05%     65.07% # Class of committed instruction. (Count)
system.cpu.commitStats0.committedInstType::SimdFloatMult            0      0.00%     65.07% # Class of committed instruction. (Count)
system.cpu.commitStats0.committedInstType::SimdFloatMultAcc            0      0.00%     65.07% # Class of committed instruction. (Count)
system.cpu.commitStats0.committedInstType::SimdFloatMatMultAcc            0      0.00%     65.07% # Class of committed instruction. (Count)
system.cpu.commitStats0.committedInstType::SimdFloatSqrt            0      0.00%     65.07% # Class of committed instruction. (Count)
system.cpu.commitStats0.committedInstType::SimdReduceAdd            0      0.00%     65.07% # Class of committed instruction. (Count)
system.cpu.commitStats0.committedInstType::SimdReduceAlu            0      0.00%     65.07% # Class of committed instruction. (Count)
system.cpu.commitStats0.committedInstType::SimdReduceCmp            0      0.00%     65.07% # Class of committed instruction. (Count)
system.cpu.commitStats0.committedInstType::SimdFloatReduceAdd            0      0.00%     65.07% # Class of committed instruction. (Count)
system.cpu.commitStats0.committedInstType::SimdFloatReduceCmp            0      0.00%     65.07% # Class of committed instruction. (Count)
system.cpu.commitStats0.committedInstType::SimdAes            0      0.00%     65.07% # Class of committed instruction. (Count)
system.cpu.commitStats0.committedInstType::SimdAesMix            0      0.00%     65.07% # Class of committed instruction. (Count)
system.cpu.commitStats0.committedInstType::SimdSha1Hash            0      0.00%     65.07% # Class of committed instruction. (Count)
system.cpu.commitStats0.committedInstType::SimdSha1Hash2            0      0.00%     65.07% # Class of committed instruction. (Count)
system.cpu.commitStats0.committedInstType::SimdSha256Hash            0      0.00%     65.07% # Class of committed instruction. (Count)
system.cpu.commitStats0.committedInstType::SimdSha256Hash2            0      0.00%     65.07% # Class of committed instruction. (Count)
system.cpu.commitStats0.committedInstType::SimdShaSigma2            0      0.00%     65.07% # Class of committed instruction. (Count)
system.cpu.commitStats0.committedInstType::SimdShaSigma3            0      0.00%     65.07% # Class of committed instruction. (Count)
system.cpu.commitStats0.committedInstType::SimdPredAlu            0      0.00%     65.07% # Class of committed instruction. (Count)
system.cpu.commitStats0.committedInstType::Matrix            0      0.00%     65.07% # Class of committed instruction. (Count)
system.cpu.commitStats0.committedInstType::MatrixMov            0      0.00%     65.07% # Class of committed instruction. (Count)
system.cpu.commitStats0.committedInstType::MatrixOP            0      0.00%     65.07% # Class of committed instruction. (Count)
system.cpu.commitStats0.committedInstType::MemRead         1087     18.61%     83.68% # Class of committed instruction. (Count)
system.cpu.commitStats0.committedInstType::MemWrite          953     16.32%    100.00% # Class of committed instruction. (Count)
system.cpu.commitStats0.committedInstType::FloatMemRead            0      0.00%    100.00% # Class of committed instruction. (Count)
system.cpu.commitStats0.committedInstType::FloatMemWrite            0      0.00%    100.00% # Class of committed instruction. (Count)
system.cpu.commitStats0.committedInstType::IprAccess            0      0.00%    100.00% # Class of committed instruction. (Count)
system.cpu.commitStats0.committedInstType::InstPrefetch            0      0.00%    100.00% # Class of committed instruction. (Count)
system.cpu.commitStats0.committedInstType::VectorUnitStrideLoad            0      0.00%    100.00% # Class of committed instruction. (Count)
system.cpu.commitStats0.committedInstType::VectorUnitStrideStore            0      0.00%    100.00% # Class of committed instruction. (Count)
system.cpu.commitStats0.committedInstType::VectorUnitStrideMaskLoad            0      0.00%    100.00% # Class of committed instruction. (Count)
system.cpu.commitStats0.committedInstType::VectorUnitStrideMaskStore            0      0.00%    100.00% # Class of committed instruction. (Count)
system.cpu.commitStats0.committedInstType::VectorStridedLoad            0      0.00%    100.00% # Class of committed instruction. (Count)
system.cpu.commitStats0.committedInstType::VectorStridedStore            0      0.00%    100.00% # Class of committed instruction. (Count)
system.cpu.commitStats0.committedInstType::VectorIndexedLoad            0      0.00%    100.00% # Class of committed instruction. (Count)
system.cpu.commitStats0.committedInstType::VectorIndexedStore            0      0.00%    100.00% # Class of committed instruction. (Count)
system.cpu.commitStats0.committedInstType::VectorUnitStrideFaultOnlyFirstLoad            0      0.00%    100.00% # Class of committed instruction. (Count)
system.cpu.commitStats0.committedInstType::VectorWholeRegisterLoad            0      0.00%    100.00% # Class of committed instruction. (Count)
system.cpu.commitStats0.committedInstType::VectorWholeRegisterStore            0      0.00%    100.00% # Class of committed instruction. (Count)
system.cpu.commitStats0.committedInstType::VectorIntegerArith            0      0.00%    100.00% # Class of committed instruction. (Count)
system.cpu.commitStats0.committedInstType::VectorFloatArith            0      0.00%    100.00% # Class of committed instruction. (Count)
system.cpu.commitStats0.committedInstType::VectorFloatConvert            0      0.00%    100.00% # Class of committed instruction. (Count)
system.cpu.commitStats0.committedInstType::VectorIntegerReduce            0      0.00%    100.00% # Class of committed instruction. (Count)
system.cpu.commitStats0.committedInstType::VectorFloatReduce            0      0.00%    100.00% # Class of committed instruction. (Count)
system.cpu.commitStats0.committedInstType::VectorMisc            0      0.00%    100.00% # Class of committed instruction. (Count)
system.cpu.commitStats0.committedInstType::VectorIntegerExtension            0      0.00%    100.00% # Class of committed instruction. (Count)
system.cpu.commitStats0.committedInstType::VectorConfig            0      0.00%    100.00% # Class of committed instruction. (Count)
system.cpu.commitStats0.committedInstType::total         5841                       # Class of committed instruction. (Count)
system.cpu.commitStats0.committedControl::IsControl         1109                       # Class of control type instructions committed (Count)
system.cpu.commitStats0.committedControl::IsDirectControl          912                       # Class of control type instructions committed (Count)
system.cpu.commitStats0.committedControl::IsIndirectControl          197                       # Class of control type instructions committed (Count)
system.cpu.commitStats0.committedControl::IsCondControl          802                       # Class of control type instructions committed (Count)
system.cpu.commitStats0.committedControl::IsUncondControl          307                       # Class of control type instructions committed (Count)
system.cpu.commitStats0.committedControl::IsCall           88                       # Class of control type instructions committed (Count)
system.cpu.commitStats0.committedControl::IsReturn          127                       # Class of control type instructions committed (Count)
system.cpu.dcache.demandHits::cpu.data           1837                       # number of demand (read+write) hits (Count)
system.cpu.dcache.demandHits::total              1837                       # number of demand (read+write) hits (Count)
system.cpu.dcache.overallHits::cpu.data          1837                       # number of overall hits (Count)
system.cpu.dcache.overallHits::total             1837                       # number of overall hits (Count)
system.cpu.dcache.demandMisses::cpu.data          143                       # number of demand (read+write) misses (Count)
system.cpu.dcache.demandMisses::total             143                       # number of demand (read+write) misses (Count)
system.cpu.dcache.overallMisses::cpu.data          143                       # number of overall misses (Count)
system.cpu.dcache.overallMisses::total            143                       # number of overall misses (Count)
system.cpu.dcache.demandMissLatency::cpu.data      9731500                       # number of demand (read+write) miss ticks (Tick)
system.cpu.dcache.demandMissLatency::total      9731500                       # number of demand (read+write) miss ticks (Tick)
system.cpu.dcache.overallMissLatency::cpu.data      9731500                       # number of overall miss ticks (Tick)
system.cpu.dcache.overallMissLatency::total      9731500                       # number of overall miss ticks (Tick)
system.cpu.dcache.demandAccesses::cpu.data         1980                       # number of demand (read+write) accesses (Count)
system.cpu.dcache.demandAccesses::total          1980                       # number of demand (read+write) accesses (Count)
system.cpu.dcache.overallAccesses::cpu.data         1980                       # number of overall (read+write) accesses (Count)
system.cpu.dcache.overallAccesses::total         1980                       # number of overall (read+write) accesses (Count)
system.cpu.dcache.demandMissRate::cpu.data     0.072222                       # miss rate for demand accesses (Ratio)
system.cpu.dcache.demandMissRate::total      0.072222                       # miss rate for demand accesses (Ratio)
system.cpu.dcache.overallMissRate::cpu.data     0.072222                       # miss rate for overall accesses (Ratio)
system.cpu.dcache.overallMissRate::total     0.072222                       # miss rate for overall accesses (Ratio)
system.cpu.dcache.demandAvgMissLatency::cpu.data 68052.447552                       # average overall miss latency in ticks ((Tick/Count))
system.cpu.dcache.demandAvgMissLatency::total 68052.447552                       # average overall miss latency in ticks ((Tick/Count))
system.cpu.dcache.overallAvgMissLatency::cpu.data 68052.447552                       # average overall miss latency ((Tick/Count))
system.cpu.dcache.overallAvgMissLatency::total 68052.447552                       # average overall miss latency ((Tick/Count))
system.cpu.dcache.blockedCycles::no_mshrs            0                       # number of cycles access was blocked (Cycle)
system.cpu.dcache.blockedCycles::no_targets            0                       # number of cycles access was blocked (Cycle)
system.cpu.dcache.blockedCauses::no_mshrs            0                       # number of times access was blocked (Count)
system.cpu.dcache.blockedCauses::no_targets            0                       # number of times access was blocked (Count)
system.cpu.dcache.avgBlocked::no_mshrs            nan                       # average number of cycles each access was blocked ((Cycle/Count))
system.cpu.dcache.avgBlocked::no_targets          nan                       # average number of cycles each access was blocked ((Cycle/Count))
system.cpu.dcache.demandMshrMisses::cpu.data          143                       # number of demand (read+write) MSHR misses (Count)
system.cpu.dcache.demandMshrMisses::total          143                       # number of demand (read+write) MSHR misses (Count)
system.cpu.dcache.overallMshrMisses::cpu.data          143                       # number of overall MSHR misses (Count)
system.cpu.dcache.overallMshrMisses::total          143                       # number of overall MSHR misses (Count)
system.cpu.dcache.demandMshrMissLatency::cpu.data      9588500                       # number of demand (read+write) MSHR miss ticks (Tick)
system.cpu.dcache.demandMshrMissLatency::total      9588500                       # number of demand (read+write) MSHR miss ticks (Tick)
system.cpu.dcache.overallMshrMissLatency::cpu.data      9588500                       # number of overall MSHR miss ticks (Tick)
system.cpu.dcache.overallMshrMissLatency::total      9588500                       # number of overall MSHR miss ticks (Tick)
system.cpu.dcache.demandMshrMissRate::cpu.data     0.072222                       # mshr miss ratio for demand accesses (Ratio)
system.cpu.dcache.demandMshrMissRate::total     0.072222                       # mshr miss ratio for demand accesses (Ratio)
system.cpu.dcache.overallMshrMissRate::cpu.data     0.072222                       # mshr miss ratio for overall accesses (Ratio)
system.cpu.dcache.overallMshrMissRate::total     0.072222                       # mshr miss ratio for overall accesses (Ratio)
system.cpu.dcache.demandAvgMshrMissLatency::cpu.data 67052.447552                       # average overall mshr miss latency ((Tick/Count))
system.cpu.dcache.demandAvgMshrMissLatency::total 67052.447552                       # average overall mshr miss latency ((Tick/Count))
system.cpu.dcache.overallAvgMshrMissLatency::cpu.data 67052.447552                       # average overall mshr miss latency ((Tick/Count))
system.cpu.dcache.overallAvgMshrMissLatency::total 67052.447552                       # average overall mshr miss latency ((Tick/Count))
system.cpu.dcache.replacements                      1                       # number of replacements (Count)
system.cpu.dcache.LoadLockedReq.hits::cpu.data           11                       # number of LoadLockedReq hits (Count)
system.cpu.dcache.LoadLockedReq.hits::total           11                       # number of LoadLockedReq hits (Count)
system.cpu.dcache.LoadLockedReq.accesses::cpu.data           11                       # number of LoadLockedReq accesses(hits+misses) (Count)
system.cpu.dcache.LoadLockedReq.accesses::total           11                       # number of LoadLockedReq accesses(hits+misses) (Count)
system.cpu.dcache.ReadReq.hits::cpu.data          954                       # number of ReadReq hits (Count)
system.cpu.dcache.ReadReq.hits::total             954                       # number of ReadReq hits (Count)
system.cpu.dcache.ReadReq.misses::cpu.data          101                       # number of ReadReq misses (Count)
system.cpu.dcache.ReadReq.misses::total           101                       # number of ReadReq misses (Count)
system.cpu.dcache.ReadReq.missLatency::cpu.data      6892000                       # number of ReadReq miss ticks (Tick)
system.cpu.dcache.ReadReq.missLatency::total      6892000                       # number of ReadReq miss ticks (Tick)
system.cpu.dcache.ReadReq.accesses::cpu.data         1055                       # number of ReadReq accesses(hits+misses) (Count)
system.cpu.dcache.ReadReq.accesses::total         1055                       # number of ReadReq accesses(hits+misses) (Count)
system.cpu.dcache.ReadReq.missRate::cpu.data     0.095735                       # miss rate for ReadReq accesses (Ratio)
system.cpu.dcache.ReadReq.missRate::total     0.095735                       # miss rate for ReadReq accesses (Ratio)
system.cpu.dcache.ReadReq.avgMissLatency::cpu.data 68237.623762                       # average ReadReq miss latency ((Tick/Count))
system.cpu.dcache.ReadReq.avgMissLatency::total 68237.623762                       # average ReadReq miss latency ((Tick/Count))
system.cpu.dcache.ReadReq.mshrMisses::cpu.data          101                       # number of ReadReq MSHR misses (Count)
system.cpu.dcache.ReadReq.mshrMisses::total          101                       # number of ReadReq MSHR misses (Count)
system.cpu.dcache.ReadReq.mshrMissLatency::cpu.data      6791000                       # number of ReadReq MSHR miss ticks (Tick)
system.cpu.dcache.ReadReq.mshrMissLatency::total      6791000                       # number of ReadReq MSHR miss ticks (Tick)
system.cpu.dcache.ReadReq.mshrMissRate::cpu.data     0.095735                       # mshr miss rate for ReadReq accesses (Ratio)
system.cpu.dcache.ReadReq.mshrMissRate::total     0.095735                       # mshr miss rate for ReadReq accesses (Ratio)
system.cpu.dcache.ReadReq.avgMshrMissLatency::cpu.data 67237.623762                       # average ReadReq mshr miss latency ((Tick/Count))
system.cpu.dcache.ReadReq.avgMshrMissLatency::total 67237.623762                       # average ReadReq mshr miss latency ((Tick/Count))
system.cpu.dcache.StoreCondReq.hits::cpu.data           11                       # number of StoreCondReq hits (Count)
system.cpu.dcache.StoreCondReq.hits::total           11                       # number of StoreCondReq hits (Count)
system.cpu.dcache.StoreCondReq.accesses::cpu.data           11                       # number of StoreCondReq accesses(hits+misses) (Count)
system.cpu.dcache.StoreCondReq.accesses::total           11                       # number of StoreCondReq accesses(hits+misses) (Count)
system.cpu.dcache.WriteReq.hits::cpu.data          883                       # number of WriteReq hits (Count)
system.cpu.dcache.WriteReq.hits::total            883                       # number of WriteReq hits (Count)
system.cpu.dcache.WriteReq.misses::cpu.data           42                       # number of WriteReq misses (Count)
system.cpu.dcache.WriteReq.misses::total           42                       # number of WriteReq misses (Count)
system.cpu.dcache.WriteReq.missLatency::cpu.data      2839500                       # number of WriteReq miss ticks (Tick)
system.cpu.dcache.WriteReq.missLatency::total      2839500                       # number of WriteReq miss ticks (Tick)
system.cpu.dcache.WriteReq.accesses::cpu.data          925                       # number of WriteReq accesses(hits+misses) (Count)
system.cpu.dcache.WriteReq.accesses::total          925                       # number of WriteReq accesses(hits+misses) (Count)
system.cpu.dcache.WriteReq.missRate::cpu.data     0.045405                       # miss rate for WriteReq accesses (Ratio)
system.cpu.dcache.WriteReq.missRate::total     0.045405                       # miss rate for WriteReq accesses (Ratio)
system.cpu.dcache.WriteReq.avgMissLatency::cpu.data 67607.142857                       # average WriteReq miss latency ((Tick/Count))
system.cpu.dcache.WriteReq.avgMissLatency::total 67607.142857                       # average WriteReq miss latency ((Tick/Count))
system.cpu.dcache.WriteReq.mshrMisses::cpu.data           42                       # number of WriteReq MSHR misses (Count)
system.cpu.dcache.WriteReq.mshrMisses::total           42                       # number of WriteReq MSHR misses (Count)
system.cpu.dcache.WriteReq.mshrMissLatency::cpu.data      2797500                       # number of WriteReq MSHR miss ticks (Tick)
system.cpu.dcache.WriteReq.mshrMissLatency::total      2797500                       # number of WriteReq MSHR miss ticks (Tick)
system.cpu.dcache.WriteReq.mshrMissRate::cpu.data     0.045405                       # mshr miss rate for WriteReq accesses (Ratio)
system.cpu.dcache.WriteReq.mshrMissRate::total     0.045405                       # mshr miss rate for WriteReq accesses (Ratio)
system.cpu.dcache.WriteReq.avgMshrMissLatency::cpu.data 66607.142857                       # average WriteReq mshr miss latency ((Tick/Count))
system.cpu.dcache.WriteReq.avgMshrMissLatency::total 66607.142857                       # average WriteReq mshr miss latency ((Tick/Count))
system.cpu.dcache.power_state.pwrStateResidencyTicks::UNDEFINED     34012500                       # Cumulative time (in ticks) in various power states (Tick)
system.cpu.dcache.tags.tagsInUse            84.337833                       # Average ticks per tags in use ((Tick/Count))
system.cpu.dcache.tags.totalRefs                 2002                       # Total number of references to valid blocks. (Count)
system.cpu.dcache.tags.sampledRefs                143                       # Sample count of references to valid blocks. (Count)
system.cpu.dcache.tags.avgRefs                     14                       # Average number of references to valid blocks. ((Count/Count))
system.cpu.dcache.tags.warmupTick              155500                       # The tick when the warmup percentage was hit. (Tick)
system.cpu.dcache.tags.occupancies::cpu.data    84.337833                       # Average occupied blocks per tick, per requestor ((Count/Tick))
system.cpu.dcache.tags.avgOccs::cpu.data     0.164722                       # Average percentage of cache occupancy ((Ratio/Tick))
system.cpu.dcache.tags.avgOccs::total        0.164722                       # Average percentage of cache occupancy ((Ratio/Tick))
system.cpu.dcache.tags.occupanciesTaskId::1024          142                       # Occupied blocks per task id (Count)
system.cpu.dcache.tags.ageTaskId_1024::0           30                       # Occupied blocks per task id, per block age (Count)
system.cpu.dcache.tags.ageTaskId_1024::1          112                       # Occupied blocks per task id, per block age (Count)
system.cpu.dcache.tags.ratioOccsTaskId::1024     0.277344                       # Ratio of occupied blocks and all blocks, per task id (Ratio)
system.cpu.dcache.tags.tagAccesses               4147                       # Number of tag accesses (Count)
system.cpu.dcache.tags.dataAccesses              4147                       # Number of data accesses (Count)
system.cpu.dcache.tags.power_state.pwrStateResidencyTicks::UNDEFINED     34012500                       # Cumulative time (in ticks) in various power states (Tick)
system.cpu.exec_context.thread_0.numMatAluAccesses            0                       # Number of matrix alu accesses (Count)
system.cpu.exec_context.thread_0.numCallsReturns          215                       # Number of times a function call or return occured (Count)
system.cpu.exec_context.thread_0.numMatInsts            0                       # Number of matrix instructions (Count)
system.cpu.exec_context.thread_0.numIdleCycles     0.002000                       # Number of idle cycles (Cycle)
system.cpu.exec_context.thread_0.numBusyCycles 68024.998000                       # Number of busy cycles (Cycle)
system.cpu.exec_context.thread_0.notIdleFraction     1.000000                       # Percentage of non-idle cycles (Ratio)
system.cpu.exec_context.thread_0.idleFraction     0.000000                       # Percentage of idle cycles (Ratio)
system.cpu.executeStats0.numInsts                   0                       # Number of executed instructions (Count)
system.cpu.executeStats0.numNop                     0                       # Number of nop insts executed (Count)
system.cpu.executeStats0.numBranches                0                       # Number of branches executed (Count)
system.cpu.executeStats0.numLoadInsts               0                       # Number of load instructions executed (Count)
system.cpu.executeStats0.numStoreInsts           2040                       # Number of stores executed (Count)
system.cpu.executeStats0.instRate                   0                       # Inst execution rate ((Count/Cycle))
system.cpu.executeStats0.numFpRegWrites             0                       # Number of times the floating registers were written (Count)
system.cpu.executeStats0.numIntAluAccesses         4986                       # Number of integer alu accesses (Count)
system.cpu.executeStats0.numIntRegReads          5884                       # Number of times the integer registers were read (Count)
system.cpu.executeStats0.numIntRegWrites         2994                       # Number of times the integer registers were written (Count)
system.cpu.executeStats0.numMemRefs              2040                       # Number of memory refs (Count)
system.cpu.executeStats0.numMiscRegReads         2086                       # Number of times the Misc registers were read (Count)
system.cpu.executeStats0.numMiscRegWrites           23                       # Number of times the Misc registers were written (Count)
system.cpu.executeStats0.numVecAluAccesses            0                       # Number of vector alu accesses (Count)
system.cpu.executeStats0.numVecRegReads            16                       # Number of times the vector registers were read (Count)
system.cpu.executeStats0.numDiscardedOps            0                       # Number of ops (including micro ops) which were discarded before commit (Count)
system.cpu.fetchStats0.numInsts                  5034                       # Number of instructions fetched (thread level) (Count)
system.cpu.fetchStats0.numOps                    5841                       # Number of ops (including micro ops) fetched (thread level) (Count)
system.cpu.fetchStats0.fetchRate             0.074002                       # Number of inst fetches per cycle ((Count/Cycle))
system.cpu.fetchStats0.numBranches               1109                       # Number of branches fetched (Count)
system.cpu.fetchStats0.branchRate            0.016303                       # Number of branch fetches per cycle (Ratio)
system.cpu.fetchStats0.numFetchSuspends             0                       # Number of times Execute suspended instruction fetching (Count)
system.cpu.icache.demandHits::cpu.inst           4791                       # number of demand (read+write) hits (Count)
system.cpu.icache.demandHits::total              4791                       # number of demand (read+write) hits (Count)
system.cpu.icache.overallHits::cpu.inst          4791                       # number of overall hits (Count)
system.cpu.icache.overallHits::total             4791                       # number of overall hits (Count)
system.cpu.icache.demandMisses::cpu.inst          245                       # number of demand (read+write) misses (Count)
system.cpu.icache.demandMisses::total             245                       # number of demand (read+write) misses (Count)
system.cpu.icache.overallMisses::cpu.inst          245                       # number of overall misses (Count)
system.cpu.icache.overallMisses::total            245                       # number of overall misses (Count)
system.cpu.icache.demandMissLatency::cpu.inst     17637500                       # number of demand (read+write) miss ticks (Tick)
system.cpu.icache.demandMissLatency::total     17637500                       # number of demand (read+write) miss ticks (Tick)
system.cpu.icache.overallMissLatency::cpu.inst     17637500                       # number of overall miss ticks (Tick)
system.cpu.icache.overallMissLatency::total     17637500                       # number of overall miss ticks (Tick)
system.cpu.icache.demandAccesses::cpu.inst         5036                       # number of demand (read+write) accesses (Count)
system.cpu.icache.demandAccesses::total          5036                       # number of demand (read+write) accesses (Count)
system.cpu.icache.overallAccesses::cpu.inst         5036                       # number of overall (read+write) accesses (Count)
system.cpu.icache.overallAccesses::total         5036                       # number of overall (read+write) accesses (Count)
system.cpu.icache.demandMissRate::cpu.inst     0.048650                       # miss rate for demand accesses (Ratio)
system.cpu.icache.demandMissRate::total      0.048650                       # miss rate for demand accesses (Ratio)
system.cpu.icache.overallMissRate::cpu.inst     0.048650                       # miss rate for overall accesses (Ratio)
system.cpu.icache.overallMissRate::total     0.048650                       # miss rate for overall accesses (Ratio)
system.cpu.icache.demandAvgMissLatency::cpu.inst 71989.795918                       # average overall miss latency in ticks ((Tick/Count))
system.cpu.icache.demandAvgMissLatency::total 71989.795918                       # average overall miss latency in ticks ((Tick/Count))
system.cpu.icache.overallAvgMissLatency::cpu.inst 71989.795918                       # average overall miss latency ((Tick/Count))
system.cpu.icache.overallAvgMissLatency::total 71989.795918                       # average overall miss latency ((Tick/Count))
system.cpu.icache.blockedCycles::no_mshrs            0                       # number of cycles access was blocked (Cycle)
system.cpu.icache.blockedCycles::no_targets            0                       # number of cycles access was blocked (Cycle)
system.cpu.icache.blockedCauses::no_mshrs            0                       # number of times access was blocked (Count)
system.cpu.icache.blockedCauses::no_targets            0                       # number of times access was blocked (Count)
system.cpu.icache.avgBlocked::no_mshrs            nan                       # average number of cycles each access was blocked ((Cycle/Count))
system.cpu.icache.avgBlocked::no_targets          nan                       # average number of cycles each access was blocked ((Cycle/Count))
system.cpu.icache.demandMshrMisses::cpu.inst          245                       # number of demand (read+write) MSHR misses (Count)
system.cpu.icache.demandMshrMisses::total          245                       # number of demand (read+write) MSHR misses (Count)
system.cpu.icache.overallMshrMisses::cpu.inst          245                       # number of overall MSHR misses (Count)
system.cpu.icache.overallMshrMisses::total          245                       # number of overall MSHR misses (Count)
system.cpu.icache.demandMshrMissLatency::cpu.inst     17392500                       # number of demand (read+write) MSHR miss ticks (Tick)
system.cpu.icache.demandMshrMissLatency::total     17392500                       # number of demand (read+write) MSHR miss ticks (Tick)
system.cpu.icache.overallMshrMissLatency::cpu.inst     17392500                       # number of overall MSHR miss ticks (Tick)
system.cpu.icache.overallMshrMissLatency::total     17392500                       # number of overall MSHR miss ticks (Tick)
system.cpu.icache.demandMshrMissRate::cpu.inst     0.048650                       # mshr miss ratio for demand accesses (Ratio)
system.cpu.icache.demandMshrMissRate::total     0.048650                       # mshr miss ratio for demand accesses (Ratio)
system.cpu.icache.overallMshrMissRate::cpu.inst     0.048650                       # mshr miss ratio for overall accesses (Ratio)
system.cpu.icache.overallMshrMissRate::total     0.048650                       # mshr miss ratio for overall accesses (Ratio)
system.cpu.icache.demandAvgMshrMissLatency::cpu.inst 70989.795918                       # average overall mshr miss latency ((Tick/Count))
system.cpu.icache.demandAvgMshrMissLatency::total 70989.795918                       # average overall mshr miss latency ((Tick/Count))
system.cpu.icache.overallAvgMshrMissLatency::cpu.inst 70989.795918                       # average overall mshr miss latency ((Tick/Count))
system.cpu.icache.overallAvgMshrMissLatency::total 70989.795918                       # average overall mshr miss latency ((Tick/Count))
system.cpu.icache.replacements                     27                       # number of replacements (Count)
system.cpu.icache.ReadReq.hits::cpu.inst         4791                       # number of ReadReq hits (Count)
system.cpu.icache.ReadReq.hits::total            4791                       # number of ReadReq hits (Count)
system.cpu.icache.ReadReq.misses::cpu.inst          245                       # number of ReadReq misses (Count)
system.cpu.icache.ReadReq.misses::total           245                       # number of ReadReq misses (Count)
system.cpu.icache.ReadReq.missLatency::cpu.inst     17637500                       # number of ReadReq miss ticks (Tick)
system.cpu.icache.ReadReq.missLatency::total     17637500                       # number of ReadReq miss ticks (Tick)
system.cpu.icache.ReadReq.accesses::cpu.inst         5036                       # number of ReadReq accesses(hits+misses) (Count)
system.cpu.icache.ReadReq.accesses::total         5036                       # number of ReadReq accesses(hits+misses) (Count)
system.cpu.icache.ReadReq.missRate::cpu.inst     0.048650                       # miss rate for ReadReq accesses (Ratio)
system.cpu.icache.ReadReq.missRate::total     0.048650                       # miss rate for ReadReq accesses (Ratio)
system.cpu.icache.ReadReq.avgMissLatency::cpu.inst 71989.795918                       # average ReadReq miss latency ((Tick/Count))
system.cpu.icache.ReadReq.avgMissLatency::total 71989.795918                       # average ReadReq miss latency ((Tick/Count))
system.cpu.icache.ReadReq.mshrMisses::cpu.inst          245                       # number of ReadReq MSHR misses (Count)
system.cpu.icache.ReadReq.mshrMisses::total          245                       # number of ReadReq MSHR misses (Count)
system.cpu.icache.ReadReq.mshrMissLatency::cpu.inst     17392500                       # number of ReadReq MSHR miss ticks (Tick)
system.cpu.icache.ReadReq.mshrMissLatency::total     17392500                       # number of ReadReq MSHR miss ticks (Tick)
system.cpu.icache.ReadReq.mshrMissRate::cpu.inst     0.048650                       # mshr miss rate for ReadReq accesses (Ratio)
system.cpu.icache.ReadReq.mshrMissRate::total     0.048650                       # mshr miss rate for ReadReq accesses (Ratio)
system.cpu.icache.ReadReq.avgMshrMissLatency::cpu.inst 70989.795918                       # average ReadReq mshr miss latency ((Tick/Count))
system.cpu.icache.ReadReq.avgMshrMissLatency::total 70989.795918                       # average ReadReq mshr miss latency ((Tick/Count))
system.cpu.icache.power_state.pwrStateResidencyTicks::UNDEFINED     34012500                       # Cumulative time (in ticks) in various power states (Tick)
system.cpu.icache.tags.tagsInUse           107.883428                       # Average ticks per tags in use ((Tick/Count))
system.cpu.icache.tags.totalRefs                 5036                       # Total number of references to valid blocks. (Count)
system.cpu.icache.tags.sampledRefs                245                       # Sample count of references to valid blocks. (Count)
system.cpu.icache.tags.avgRefs              20.555102                       # Average number of references to valid blocks. ((Count/Count))
system.cpu.icache.tags.warmupTick               81000                       # The tick when the warmup percentage was hit. (Tick)
system.cpu.icache.tags.occupancies::cpu.inst   107.883428                       # Average occupied blocks per tick, per requestor ((Count/Tick))
system.cpu.icache.tags.avgOccs::cpu.inst     0.210710                       # Average percentage of cache occupancy ((Ratio/Tick))
system.cpu.icache.tags.avgOccs::total        0.210710                       # Average percentage of cache occupancy ((Ratio/Tick))
system.cpu.icache.tags.occupanciesTaskId::1024          218                       # Occupied blocks per task id (Count)
system.cpu.icache.tags.ageTaskId_1024::0           84                       # Occupied blocks per task id, per block age (Count)
system.cpu.icache.tags.ageTaskId_1024::1          134                       # Occupied blocks per task id, per block age (Count)
system.cpu.icache.tags.ratioOccsTaskId::1024     0.425781                       # Ratio of occupied blocks and all blocks, per task id (Ratio)
system.cpu.icache.tags.tagAccesses              10317                       # Number of tag accesses (Count)
system.cpu.icache.tags.dataAccesses             10317                       # Number of data accesses (Count)
system.cpu.icache.tags.power_state.pwrStateResidencyTicks::UNDEFINED     34012500                       # Cumulative time (in ticks) in various power states (Tick)
system.cpu.mmu.alignFaults                          0                       # Number of MMU faults due to alignment restrictions (Count)
system.cpu.mmu.prefetchFaults                       0                       # Number of MMU faults due to prefetch (Count)
system.cpu.mmu.domainFaults                         0                       # Number of MMU faults due to domain restrictions (Count)
system.cpu.mmu.permsFaults                          0                       # Number of MMU faults due to permissions restrictions (Count)
system.cpu.mmu.dtb.readHits                         0                       # Read hits (Count)
system.cpu.mmu.dtb.readMisses                       0                       # Read misses (Count)
system.cpu.mmu.dtb.writeHits                        0                       # Write hits (Count)
system.cpu.mmu.dtb.writeMisses                      0                       # Write misses (Count)
system.cpu.mmu.dtb.inserts                          0                       # Number of times an entry is inserted into the TLB (Count)
system.cpu.mmu.dtb.flushTlb                         0                       # Number of times a TLB invalidation was requested (Count)
system.cpu.mmu.dtb.flushedEntries                   0                       # Number of entries that have been flushed from TLB (Count)
system.cpu.mmu.dtb.readAccesses                     0                       # Read accesses (Count)
system.cpu.mmu.dtb.writeAccesses                    0                       # Write accesses (Count)
system.cpu.mmu.dtb.hits                             0                       # Total TLB (inst and data) hits (Count)
system.cpu.mmu.dtb.misses                           0                       # Total TLB (inst and data) misses (Count)
system.cpu.mmu.dtb.accesses                         0                       # Total TLB (inst and data) accesses (Count)
system.cpu.mmu.dtb_walker.walks                     0                       # Table walker walks requested (Count)
system.cpu.mmu.dtb_walker.requestOrigin_Requested::Data            0                       # Table walker requests started/completed, data/inst (Count)
system.cpu.mmu.dtb_walker.requestOrigin_Requested::Inst            0                       # Table walker requests started/completed, data/inst (Count)
system.cpu.mmu.dtb_walker.requestOrigin_Requested::total            0                       # Table walker requests started/completed, data/inst (Count)
system.cpu.mmu.dtb_walker.requestOrigin_Completed::Data            0                       # Table walker requests started/completed, data/inst (Count)
system.cpu.mmu.dtb_walker.requestOrigin_Completed::Inst            0                       # Table walker requests started/completed, data/inst (Count)
system.cpu.mmu.dtb_walker.requestOrigin_Completed::total            0                       # Table walker requests started/completed, data/inst (Count)
system.cpu.mmu.dtb_walker.requestOrigin::total            0                       # Table walker requests started/completed, data/inst (Count)
system.cpu.mmu.dtb_walker.power_state.pwrStateResidencyTicks::UNDEFINED     34012500                       # Cumulative time (in ticks) in various power states (Tick)
system.cpu.mmu.itb.instHits                         0                       # Inst hits (Count)
system.cpu.mmu.itb.instMisses                       0                       # Inst misses (Count)
system.cpu.mmu.itb.inserts                          0                       # Number of times an entry is inserted into the TLB (Count)
system.cpu.mmu.itb.flushTlb                         0                       # Number of times a TLB invalidation was requested (Count)
system.cpu.mmu.itb.flushedEntries                   0                       # Number of entries that have been flushed from TLB (Count)
system.cpu.mmu.itb.instAccesses                     0                       # Inst accesses (Count)
system.cpu.mmu.itb.hits                             0                       # Total TLB (inst and data) hits (Count)
system.cpu.mmu.itb.misses                           0                       # Total TLB (inst and data) misses (Count)
system.cpu.mmu.itb.accesses                         0                       # Total TLB (inst and data) accesses (Count)
system.cpu.mmu.itb_walker.walks                     0                       # Table walker walks requested (Count)
system.cpu.mmu.itb_walker.requestOrigin_Requested::Data            0                       # Table walker requests started/completed, data/inst (Count)
system.cpu.mmu.itb_walker.requestOrigin_Requested::Inst            0                       # Table walker requests started/completed, data/inst (Count)
system.cpu.mmu.itb_walker.requestOrigin_Requested::total            0                       # Table walker requests started/completed, data/inst (Count)
system.cpu.mmu.itb_walker.requestOrigin_Completed::Data            0                       # Table walker requests started/completed, data/inst (Count)
system.cpu.mmu.itb_walker.requestOrigin_Completed::Inst            0                       # Table walker requests started/completed, data/inst (Count)
system.cpu.mmu.itb_walker.requestOrigin_Completed::total            0                       # Table walker requests started/completed, data/inst (Count)
system.cpu.mmu.itb_walker.requestOrigin::total            0                       # Table walker requests started/completed, data/inst (Count)
system.cpu.mmu.itb_walker.power_state.pwrStateResidencyTicks::UNDEFINED     34012500                       # Cumulative time (in ticks) in various power states (Tick)
system.cpu.mmu.l2_shared.instHits                   0                       # Inst hits (Count)
system.cpu.mmu.l2_shared.instMisses                 0                       # Inst misses (Count)
system.cpu.mmu.l2_shared.inserts                    0                       # Number of times an entry is inserted into the TLB (Count)
system.cpu.mmu.l2_shared.flushTlb                   0                       # Number of times a TLB invalidation was requested (Count)
system.cpu.mmu.l2_shared.flushedEntries             0                       # Number of entries that have been flushed from TLB (Count)
system.cpu.mmu.l2_shared.instAccesses               0                       # Inst accesses (Count)
system.cpu.mmu.l2_shared.hits                       0                       # Total TLB (inst and data) hits (Count)
system.cpu.mmu.l2_shared.misses                     0                       # Total TLB (inst and data) misses (Count)
system.cpu.mmu.l2_shared.accesses                   0                       # Total TLB (inst and data) accesses (Count)
system.cpu.mmu.stage2_dtb.readHits                  0                       # Read hits (Count)
system.cpu.mmu.stage2_dtb.readMisses                0                       # Read misses (Count)
system.cpu.mmu.stage2_dtb.writeHits                 0                       # Write hits (Count)
system.cpu.mmu.stage2_dtb.writeMisses               0                       # Write misses (Count)
system.cpu.mmu.stage2_dtb.inserts                   0                       # Number of times an entry is inserted into the TLB (Count)
system.cpu.mmu.stage2_dtb.flushTlb                  0                       # Number of times a TLB invalidation was requested (Count)
system.cpu.mmu.stage2_dtb.flushedEntries            0                       # Number of entries that have been flushed from TLB (Count)
system.cpu.mmu.stage2_dtb.readAccesses              0                       # Read accesses (Count)
system.cpu.mmu.stage2_dtb.writeAccesses             0                       # Write accesses (Count)
system.cpu.mmu.stage2_dtb.hits                      0                       # Total TLB (inst and data) hits (Count)
system.cpu.mmu.stage2_dtb.misses                    0                       # Total TLB (inst and data) misses (Count)
system.cpu.mmu.stage2_dtb.accesses                  0                       # Total TLB (inst and data) accesses (Count)
system.cpu.mmu.stage2_dtb_walker.walks              0                       # Table walker walks requested (Count)
system.cpu.mmu.stage2_dtb_walker.requestOrigin_Requested::Data            0                       # Table walker requests started/completed, data/inst (Count)
system.cpu.mmu.stage2_dtb_walker.requestOrigin_Requested::Inst            0                       # Table walker requests started/completed, data/inst (Count)
system.cpu.mmu.stage2_dtb_walker.requestOrigin_Requested::total            0                       # Table walker requests started/completed, data/inst (Count)
system.cpu.mmu.stage2_dtb_walker.requestOrigin_Completed::Data            0                       # Table walker requests started/completed, data/inst (Count)
system.cpu.mmu.stage2_dtb_walker.requestOrigin_Completed::Inst            0                       # Table walker requests started/completed, data/inst (Count)
system.cpu.mmu.stage2_dtb_walker.requestOrigin_Completed::total            0                       # Table walker requests started/completed, data/inst (Count)
system.cpu.mmu.stage2_dtb_walker.requestOrigin::total            0                       # Table walker requests started/completed, data/inst (Count)
system.cpu.mmu.stage2_dtb_walker.power_state.pwrStateResidencyTicks::UNDEFINED     34012500                       # Cumulative time (in ticks) in various power states (Tick)
system.cpu.mmu.stage2_itb.instHits                  0                       # Inst hits (Count)
system.cpu.mmu.stage2_itb.instMisses                0                       # Inst misses (Count)
system.cpu.mmu.stage2_itb.inserts                   0                       # Number of times an entry is inserted into the TLB (Count)
system.cpu.mmu.stage2_itb.flushTlb                  0                       # Number of times a TLB invalidation was requested (Count)
system.cpu.mmu.stage2_itb.flushedEntries            0                       # Number of entries that have been flushed from TLB (Count)
system.cpu.mmu.stage2_itb.instAccesses              0                       # Inst accesses (Count)
system.cpu.mmu.stage2_itb.hits                      0                       # Total TLB (inst and data) hits (Count)
system.cpu.mmu.stage2_itb.misses                    0                       # Total TLB (inst and data) misses (Count)
system.cpu.mmu.stage2_itb.accesses                  0                       # Total TLB (inst and data) accesses (Count)
system.cpu.mmu.stage2_itb_walker.walks              0                       # Table walker walks requested (Count)
system.cpu.mmu.stage2_itb_walker.requestOrigin_Requested::Data            0                       # Table walker requests started/completed, data/inst (Count)
system.cpu.mmu.stage2_itb_walker.requestOrigin_Requested::Inst            0                       # Table walker requests started/completed, data/inst (Count)
system.cpu.mmu.stage2_itb_walker.requestOrigin_Requested::total            0                       # Table walker requests started/completed, data/inst (Count)
system.cpu.mmu.stage2_itb_walker.requestOrigin_Completed::Data            0                       # Table walker requests started/completed, data/inst (Count)
system.cpu.mmu.stage2_itb_walker.requestOrigin_Completed::Inst            0                       # Table walker requests started/completed, data/inst (Count)
system.cpu.mmu.stage2_itb_walker.requestOrigin_Completed::total            0                       # Table walker requests started/completed, data/inst (Count)
system.cpu.mmu.stage2_itb_walker.requestOrigin::total            0                       # Table walker requests started/completed, data/inst (Count)
system.cpu.mmu.stage2_itb_walker.power_state.pwrStateResidencyTicks::UNDEFINED     34012500                       # Cumulative time (in ticks) in various power states (Tick)
system.cpu.power_state.pwrStateResidencyTicks::ON     34012500                       # Cumulative time (in ticks) in various power states (Tick)
system.cpu.thread_0.numInsts                        0                       # Number of Instructions committed (Count)
system.cpu.thread_0.numOps                          0                       # Number of Ops committed (Count)
system.cpu.thread_0.numMemRefs                      0                       # Number of Memory References (Count)
system.cpu.workload.numSyscalls                    13                       # Number of system calls (Count)
system.l2dcache.demandMisses::cpu.data            143                       # number of demand (read+write) misses (Count)
system.l2dcache.demandMisses::total               143                       # number of demand (read+write) misses (Count)
system.l2dcache.overallMisses::cpu.data           143                       # number of overall misses (Count)
system.l2dcache.overallMisses::total              143                       # number of overall misses (Count)
system.l2dcache.demandMissLatency::cpu.data      9445500                       # number of demand (read+write) miss ticks (Tick)
system.l2dcache.demandMissLatency::total      9445500                       # number of demand (read+write) miss ticks (Tick)
system.l2dcache.overallMissLatency::cpu.data      9445500                       # number of overall miss ticks (Tick)
system.l2dcache.overallMissLatency::total      9445500                       # number of overall miss ticks (Tick)
system.l2dcache.demandAccesses::cpu.data          143                       # number of demand (read+write) accesses (Count)
system.l2dcache.demandAccesses::total             143                       # number of demand (read+write) accesses (Count)
system.l2dcache.overallAccesses::cpu.data          143                       # number of overall (read+write) accesses (Count)
system.l2dcache.overallAccesses::total            143                       # number of overall (read+write) accesses (Count)
system.l2dcache.demandMissRate::cpu.data            1                       # miss rate for demand accesses (Ratio)
system.l2dcache.demandMissRate::total               1                       # miss rate for demand accesses (Ratio)
system.l2dcache.overallMissRate::cpu.data            1                       # miss rate for overall accesses (Ratio)
system.l2dcache.overallMissRate::total              1                       # miss rate for overall accesses (Ratio)
system.l2dcache.demandAvgMissLatency::cpu.data 66052.447552                       # average overall miss latency in ticks ((Tick/Count))
system.l2dcache.demandAvgMissLatency::total 66052.447552                       # average overall miss latency in ticks ((Tick/Count))
system.l2dcache.overallAvgMissLatency::cpu.data 66052.447552                       # average overall miss latency ((Tick/Count))
system.l2dcache.overallAvgMissLatency::total 66052.447552                       # average overall miss latency ((Tick/Count))
system.l2dcache.blockedCycles::no_mshrs             0                       # number of cycles access was blocked (Cycle)
system.l2dcache.blockedCycles::no_targets            0                       # number of cycles access was blocked (Cycle)
system.l2dcache.blockedCauses::no_mshrs             0                       # number of times access was blocked (Count)
system.l2dcache.blockedCauses::no_targets            0                       # number of times access was blocked (Count)
system.l2dcache.avgBlocked::no_mshrs              nan                       # average number of cycles each access was blocked ((Cycle/Count))
system.l2dcache.avgBlocked::no_targets            nan                       # average number of cycles each access was blocked ((Cycle/Count))
system.l2dcache.demandMshrMisses::cpu.data          143                       # number of demand (read+write) MSHR misses (Count)
system.l2dcache.demandMshrMisses::total           143                       # number of demand (read+write) MSHR misses (Count)
system.l2dcache.overallMshrMisses::cpu.data          143                       # number of overall MSHR misses (Count)
system.l2dcache.overallMshrMisses::total          143                       # number of overall MSHR misses (Count)
system.l2dcache.demandMshrMissLatency::cpu.data      8015500                       # number of demand (read+write) MSHR miss ticks (Tick)
system.l2dcache.demandMshrMissLatency::total      8015500                       # number of demand (read+write) MSHR miss ticks (Tick)
system.l2dcache.overallMshrMissLatency::cpu.data      8015500                       # number of overall MSHR miss ticks (Tick)
system.l2dcache.overallMshrMissLatency::total      8015500                       # number of overall MSHR miss ticks (Tick)
system.l2dcache.demandMshrMissRate::cpu.data            1                       # mshr miss ratio for demand accesses (Ratio)
system.l2dcache.demandMshrMissRate::total            1                       # mshr miss ratio for demand accesses (Ratio)
system.l2dcache.overallMshrMissRate::cpu.data            1                       # mshr miss ratio for overall accesses (Ratio)
system.l2dcache.overallMshrMissRate::total            1                       # mshr miss ratio for overall accesses (Ratio)
system.l2dcache.demandAvgMshrMissLatency::cpu.data 56052.447552                       # average overall mshr miss latency ((Tick/Count))
system.l2dcache.demandAvgMshrMissLatency::total 56052.447552                       # average overall mshr miss latency ((Tick/Count))
system.l2dcache.overallAvgMshrMissLatency::cpu.data 56052.447552                       # average overall mshr miss latency ((Tick/Count))
system.l2dcache.overallAvgMshrMissLatency::total 56052.447552                       # average overall mshr miss latency ((Tick/Count))
system.l2dcache.replacements                        0                       # number of replacements (Count)
system.l2dcache.ReadExReq.misses::cpu.data           42                       # number of ReadExReq misses (Count)
system.l2dcache.ReadExReq.misses::total            42                       # number of ReadExReq misses (Count)
system.l2dcache.ReadExReq.missLatency::cpu.data      2755500                       # number of ReadExReq miss ticks (Tick)
system.l2dcache.ReadExReq.missLatency::total      2755500                       # number of ReadExReq miss ticks (Tick)
system.l2dcache.ReadExReq.accesses::cpu.data           42                       # number of ReadExReq accesses(hits+misses) (Count)
system.l2dcache.ReadExReq.accesses::total           42                       # number of ReadExReq accesses(hits+misses) (Count)
system.l2dcache.ReadExReq.missRate::cpu.data            1                       # miss rate for ReadExReq accesses (Ratio)
system.l2dcache.ReadExReq.missRate::total            1                       # miss rate for ReadExReq accesses (Ratio)
system.l2dcache.ReadExReq.avgMissLatency::cpu.data 65607.142857                       # average ReadExReq miss latency ((Tick/Count))
system.l2dcache.ReadExReq.avgMissLatency::total 65607.142857                       # average ReadExReq miss latency ((Tick/Count))
system.l2dcache.ReadExReq.mshrMisses::cpu.data           42                       # number of ReadExReq MSHR misses (Count)
system.l2dcache.ReadExReq.mshrMisses::total           42                       # number of ReadExReq MSHR misses (Count)
system.l2dcache.ReadExReq.mshrMissLatency::cpu.data      2335500                       # number of ReadExReq MSHR miss ticks (Tick)
system.l2dcache.ReadExReq.mshrMissLatency::total      2335500                       # number of ReadExReq MSHR miss ticks (Tick)
system.l2dcache.ReadExReq.mshrMissRate::cpu.data            1                       # mshr miss rate for ReadExReq accesses (Ratio)
system.l2dcache.ReadExReq.mshrMissRate::total            1                       # mshr miss rate for ReadExReq accesses (Ratio)
system.l2dcache.ReadExReq.avgMshrMissLatency::cpu.data 55607.142857                       # average ReadExReq mshr miss latency ((Tick/Count))
system.l2dcache.ReadExReq.avgMshrMissLatency::total 55607.142857                       # average ReadExReq mshr miss latency ((Tick/Count))
system.l2dcache.ReadSharedReq.misses::cpu.data          101                       # number of ReadSharedReq misses (Count)
system.l2dcache.ReadSharedReq.misses::total          101                       # number of ReadSharedReq misses (Count)
system.l2dcache.ReadSharedReq.missLatency::cpu.data      6690000                       # number of ReadSharedReq miss ticks (Tick)
system.l2dcache.ReadSharedReq.missLatency::total      6690000                       # number of ReadSharedReq miss ticks (Tick)
system.l2dcache.ReadSharedReq.accesses::cpu.data          101                       # number of ReadSharedReq accesses(hits+misses) (Count)
system.l2dcache.ReadSharedReq.accesses::total          101                       # number of ReadSharedReq accesses(hits+misses) (Count)
system.l2dcache.ReadSharedReq.missRate::cpu.data            1                       # miss rate for ReadSharedReq accesses (Ratio)
system.l2dcache.ReadSharedReq.missRate::total            1                       # miss rate for ReadSharedReq accesses (Ratio)
system.l2dcache.ReadSharedReq.avgMissLatency::cpu.data 66237.623762                       # average ReadSharedReq miss latency ((Tick/Count))
system.l2dcache.ReadSharedReq.avgMissLatency::total 66237.623762                       # average ReadSharedReq miss latency ((Tick/Count))
system.l2dcache.ReadSharedReq.mshrMisses::cpu.data          101                       # number of ReadSharedReq MSHR misses (Count)
system.l2dcache.ReadSharedReq.mshrMisses::total          101                       # number of ReadSharedReq MSHR misses (Count)
system.l2dcache.ReadSharedReq.mshrMissLatency::cpu.data      5680000                       # number of ReadSharedReq MSHR miss ticks (Tick)
system.l2dcache.ReadSharedReq.mshrMissLatency::total      5680000                       # number of ReadSharedReq MSHR miss ticks (Tick)
system.l2dcache.ReadSharedReq.mshrMissRate::cpu.data            1                       # mshr miss rate for ReadSharedReq accesses (Ratio)
system.l2dcache.ReadSharedReq.mshrMissRate::total            1                       # mshr miss rate for ReadSharedReq accesses (Ratio)
system.l2dcache.ReadSharedReq.avgMshrMissLatency::cpu.data 56237.623762                       # average ReadSharedReq mshr miss latency ((Tick/Count))
system.l2dcache.ReadSharedReq.avgMshrMissLatency::total 56237.623762                       # average ReadSharedReq mshr miss latency ((Tick/Count))
system.l2dcache.power_state.pwrStateResidencyTicks::UNDEFINED     34012500                       # Cumulative time (in ticks) in various power states (Tick)
system.l2dcache.tags.tagsInUse              84.731233                       # Average ticks per tags in use ((Tick/Count))
system.l2dcache.tags.totalRefs                    144                       # Total number of references to valid blocks. (Count)
system.l2dcache.tags.sampledRefs                  143                       # Sample count of references to valid blocks. (Count)
system.l2dcache.tags.avgRefs                 1.006993                       # Average number of references to valid blocks. ((Count/Count))
system.l2dcache.tags.warmupTick                145500                       # The tick when the warmup percentage was hit. (Tick)
system.l2dcache.tags.occupancies::cpu.data    84.731233                       # Average occupied blocks per tick, per requestor ((Count/Tick))
system.l2dcache.tags.avgOccs::cpu.data       0.020686                       # Average percentage of cache occupancy ((Ratio/Tick))
system.l2dcache.tags.avgOccs::total          0.020686                       # Average percentage of cache occupancy ((Ratio/Tick))
system.l2dcache.tags.occupanciesTaskId::1024          143                       # Occupied blocks per task id (Count)
system.l2dcache.tags.ageTaskId_1024::0             30                       # Occupied blocks per task id, per block age (Count)
system.l2dcache.tags.ageTaskId_1024::1            113                       # Occupied blocks per task id, per block age (Count)
system.l2dcache.tags.ratioOccsTaskId::1024     0.034912                       # Ratio of occupied blocks and all blocks, per task id (Ratio)
system.l2dcache.tags.tagAccesses                 1295                       # Number of tag accesses (Count)
system.l2dcache.tags.dataAccesses                1295                       # Number of data accesses (Count)
system.l2dcache.tags.power_state.pwrStateResidencyTicks::UNDEFINED     34012500                       # Cumulative time (in ticks) in various power states (Tick)
system.l2icache.demandHits::cpu.inst                3                       # number of demand (read+write) hits (Count)
system.l2icache.demandHits::total                   3                       # number of demand (read+write) hits (Count)
system.l2icache.overallHits::cpu.inst               3                       # number of overall hits (Count)
system.l2icache.overallHits::total                  3                       # number of overall hits (Count)
system.l2icache.demandMisses::cpu.inst            242                       # number of demand (read+write) misses (Count)
system.l2icache.demandMisses::total               242                       # number of demand (read+write) misses (Count)
system.l2icache.overallMisses::cpu.inst           242                       # number of overall misses (Count)
system.l2icache.overallMisses::total              242                       # number of overall misses (Count)
system.l2icache.demandMissLatency::cpu.inst     17117500                       # number of demand (read+write) miss ticks (Tick)
system.l2icache.demandMissLatency::total     17117500                       # number of demand (read+write) miss ticks (Tick)
system.l2icache.overallMissLatency::cpu.inst     17117500                       # number of overall miss ticks (Tick)
system.l2icache.overallMissLatency::total     17117500                       # number of overall miss ticks (Tick)
system.l2icache.demandAccesses::cpu.inst          245                       # number of demand (read+write) accesses (Count)
system.l2icache.demandAccesses::total             245                       # number of demand (read+write) accesses (Count)
system.l2icache.overallAccesses::cpu.inst          245                       # number of overall (read+write) accesses (Count)
system.l2icache.overallAccesses::total            245                       # number of overall (read+write) accesses (Count)
system.l2icache.demandMissRate::cpu.inst     0.987755                       # miss rate for demand accesses (Ratio)
system.l2icache.demandMissRate::total        0.987755                       # miss rate for demand accesses (Ratio)
system.l2icache.overallMissRate::cpu.inst     0.987755                       # miss rate for overall accesses (Ratio)
system.l2icache.overallMissRate::total       0.987755                       # miss rate for overall accesses (Ratio)
system.l2icache.demandAvgMissLatency::cpu.inst 70733.471074                       # average overall miss latency in ticks ((Tick/Count))
system.l2icache.demandAvgMissLatency::total 70733.471074                       # average overall miss latency in ticks ((Tick/Count))
system.l2icache.overallAvgMissLatency::cpu.inst 70733.471074                       # average overall miss latency ((Tick/Count))
system.l2icache.overallAvgMissLatency::total 70733.471074                       # average overall miss latency ((Tick/Count))
system.l2icache.blockedCycles::no_mshrs             0                       # number of cycles access was blocked (Cycle)
system.l2icache.blockedCycles::no_targets            0                       # number of cycles access was blocked (Cycle)
system.l2icache.blockedCauses::no_mshrs             0                       # number of times access was blocked (Count)
system.l2icache.blockedCauses::no_targets            0                       # number of times access was blocked (Count)
system.l2icache.avgBlocked::no_mshrs              nan                       # average number of cycles each access was blocked ((Cycle/Count))
system.l2icache.avgBlocked::no_targets            nan                       # average number of cycles each access was blocked ((Cycle/Count))
system.l2icache.demandMshrMisses::cpu.inst          242                       # number of demand (read+write) MSHR misses (Count)
system.l2icache.demandMshrMisses::total           242                       # number of demand (read+write) MSHR misses (Count)
system.l2icache.overallMshrMisses::cpu.inst          242                       # number of overall MSHR misses (Count)
system.l2icache.overallMshrMisses::total          242                       # number of overall MSHR misses (Count)
system.l2icache.demandMshrMissLatency::cpu.inst     14697500                       # number of demand (read+write) MSHR miss ticks (Tick)
system.l2icache.demandMshrMissLatency::total     14697500                       # number of demand (read+write) MSHR miss ticks (Tick)
system.l2icache.overallMshrMissLatency::cpu.inst     14697500                       # number of overall MSHR miss ticks (Tick)
system.l2icache.overallMshrMissLatency::total     14697500                       # number of overall MSHR miss ticks (Tick)
system.l2icache.demandMshrMissRate::cpu.inst     0.987755                       # mshr miss ratio for demand accesses (Ratio)
system.l2icache.demandMshrMissRate::total     0.987755                       # mshr miss ratio for demand accesses (Ratio)
system.l2icache.overallMshrMissRate::cpu.inst     0.987755                       # mshr miss ratio for overall accesses (Ratio)
system.l2icache.overallMshrMissRate::total     0.987755                       # mshr miss ratio for overall accesses (Ratio)
system.l2icache.demandAvgMshrMissLatency::cpu.inst 60733.471074                       # average overall mshr miss latency ((Tick/Count))
system.l2icache.demandAvgMshrMissLatency::total 60733.471074                       # average overall mshr miss latency ((Tick/Count))
system.l2icache.overallAvgMshrMissLatency::cpu.inst 60733.471074                       # average overall mshr miss latency ((Tick/Count))
system.l2icache.overallAvgMshrMissLatency::total 60733.471074                       # average overall mshr miss latency ((Tick/Count))
system.l2icache.replacements                        0                       # number of replacements (Count)
system.l2icache.ReadSharedReq.hits::cpu.inst            3                       # number of ReadSharedReq hits (Count)
system.l2icache.ReadSharedReq.hits::total            3                       # number of ReadSharedReq hits (Count)
system.l2icache.ReadSharedReq.misses::cpu.inst          242                       # number of ReadSharedReq misses (Count)
system.l2icache.ReadSharedReq.misses::total          242                       # number of ReadSharedReq misses (Count)
system.l2icache.ReadSharedReq.missLatency::cpu.inst     17117500                       # number of ReadSharedReq miss ticks (Tick)
system.l2icache.ReadSharedReq.missLatency::total     17117500                       # number of ReadSharedReq miss ticks (Tick)
system.l2icache.ReadSharedReq.accesses::cpu.inst          245                       # number of ReadSharedReq accesses(hits+misses) (Count)
system.l2icache.ReadSharedReq.accesses::total          245                       # number of ReadSharedReq accesses(hits+misses) (Count)
system.l2icache.ReadSharedReq.missRate::cpu.inst     0.987755                       # miss rate for ReadSharedReq accesses (Ratio)
system.l2icache.ReadSharedReq.missRate::total     0.987755                       # miss rate for ReadSharedReq accesses (Ratio)
system.l2icache.ReadSharedReq.avgMissLatency::cpu.inst 70733.471074                       # average ReadSharedReq miss latency ((Tick/Count))
system.l2icache.ReadSharedReq.avgMissLatency::total 70733.471074                       # average ReadSharedReq miss latency ((Tick/Count))
system.l2icache.ReadSharedReq.mshrMisses::cpu.inst          242                       # number of ReadSharedReq MSHR misses (Count)
system.l2icache.ReadSharedReq.mshrMisses::total          242                       # number of ReadSharedReq MSHR misses (Count)
system.l2icache.ReadSharedReq.mshrMissLatency::cpu.inst     14697500                       # number of ReadSharedReq MSHR miss ticks (Tick)
system.l2icache.ReadSharedReq.mshrMissLatency::total     14697500                       # number of ReadSharedReq MSHR miss ticks (Tick)
system.l2icache.ReadSharedReq.mshrMissRate::cpu.inst     0.987755                       # mshr miss rate for ReadSharedReq accesses (Ratio)
system.l2icache.ReadSharedReq.mshrMissRate::total     0.987755                       # mshr miss rate for ReadSharedReq accesses (Ratio)
system.l2icache.ReadSharedReq.avgMshrMissLatency::cpu.inst 60733.471074                       # average ReadSharedReq mshr miss latency ((Tick/Count))
system.l2icache.ReadSharedReq.avgMshrMissLatency::total 60733.471074                       # average ReadSharedReq mshr miss latency ((Tick/Count))
system.l2icache.power_state.pwrStateResidencyTicks::UNDEFINED     34012500                       # Cumulative time (in ticks) in various power states (Tick)
system.l2icache.tags.tagsInUse             115.095454                       # Average ticks per tags in use ((Tick/Count))
system.l2icache.tags.totalRefs                    272                       # Total number of references to valid blocks. (Count)
system.l2icache.tags.sampledRefs                  242                       # Sample count of references to valid blocks. (Count)
system.l2icache.tags.avgRefs                 1.123967                       # Average number of references to valid blocks. ((Count/Count))
system.l2icache.tags.warmupTick                 71000                       # The tick when the warmup percentage was hit. (Tick)
system.l2icache.tags.occupancies::cpu.inst   115.095454                       # Average occupied blocks per tick, per requestor ((Count/Tick))
system.l2icache.tags.avgOccs::cpu.inst       0.028099                       # Average percentage of cache occupancy ((Ratio/Tick))
system.l2icache.tags.avgOccs::total          0.028099                       # Average percentage of cache occupancy ((Ratio/Tick))
system.l2icache.tags.occupanciesTaskId::1024          242                       # Occupied blocks per task id (Count)
system.l2icache.tags.ageTaskId_1024::0             82                       # Occupied blocks per task id, per block age (Count)
system.l2icache.tags.ageTaskId_1024::1            160                       # Occupied blocks per task id, per block age (Count)
system.l2icache.tags.ratioOccsTaskId::1024     0.059082                       # Ratio of occupied blocks and all blocks, per task id (Ratio)
system.l2icache.tags.tagAccesses                 2418                       # Number of tag accesses (Count)
system.l2icache.tags.dataAccesses                2418                       # Number of data accesses (Count)
system.l2icache.tags.power_state.pwrStateResidencyTicks::UNDEFINED     34012500                       # Cumulative time (in ticks) in various power states (Tick)
system.mem_ctrl.avgPriority_cpu.inst::samples       242.00                       # Average QoS priority value for accepted requests (Count)
system.mem_ctrl.avgPriority_cpu.data::samples       143.00                       # Average QoS priority value for accepted requests (Count)
system.mem_ctrl.priorityMinLatency       0.000000017492                       # per QoS priority minimum request to response latency (Second)
system.mem_ctrl.priorityMaxLatency       0.000000691652                       # per QoS priority maximum request to response latency (Second)
system.mem_ctrl.numReadWriteTurnArounds             0                       # Number of turnarounds from READ to WRITE (Count)
system.mem_ctrl.numWriteReadTurnArounds             0                       # Number of turnarounds from WRITE to READ (Count)
system.mem_ctrl.numStayReadState                  778                       # Number of times bus staying in READ state (Count)
system.mem_ctrl.numStayWriteState                   0                       # Number of times bus staying in WRITE state (Count)
[...]
system.mem_ctrl.dram.perBankRdBursts::10            3                       # Per bank write bursts (Count)
system.mem_ctrl.dram.perBankRdBursts::11            0                       # Per bank write bursts (Count)
system.mem_ctrl.dram.perBankRdBursts::12            0                       # Per bank write bursts (Count)
system.mem_ctrl.dram.perBankRdBursts::13            3                       # Per bank write bursts (Count)
system.mem_ctrl.dram.perBankRdBursts::14            0                       # Per bank write bursts (Count)
system.mem_ctrl.dram.perBankRdBursts::15            7                       # Per bank write bursts (Count)
system.mem_ctrl.dram.perBankRdBursts::16           18                       # Per bank write bursts (Count)
system.mem_ctrl.dram.perBankRdBursts::17           20                       # Per bank write bursts (Count)
system.mem_ctrl.dram.perBankRdBursts::18            0                       # Per bank write bursts (Count)
system.mem_ctrl.dram.perBankRdBursts::19            0                       # Per bank write bursts (Count)
system.mem_ctrl.dram.perBankRdBursts::20            0                       # Per bank write bursts (Count)
system.mem_ctrl.dram.perBankRdBursts::21            6                       # Per bank write bursts (Count)
system.mem_ctrl.dram.perBankRdBursts::22            0                       # Per bank write bursts (Count)
system.mem_ctrl.dram.perBankRdBursts::23            9                       # Per bank write bursts (Count)
system.mem_ctrl.dram.perBankRdBursts::24            0                       # Per bank write bursts (Count)
system.mem_ctrl.dram.perBankRdBursts::25            1                       # Per bank write bursts (Count)
system.mem_ctrl.dram.perBankRdBursts::26           23                       # Per bank write bursts (Count)
system.mem_ctrl.dram.perBankRdBursts::27           44                       # Per bank write bursts (Count)
system.mem_ctrl.dram.perBankRdBursts::28            8                       # Per bank write bursts (Count)
system.mem_ctrl.dram.perBankRdBursts::29            2                       # Per bank write bursts (Count)
system.mem_ctrl.dram.perBankRdBursts::30            0                       # Per bank write bursts (Count)
system.mem_ctrl.dram.perBankRdBursts::31            0                       # Per bank write bursts (Count)
system.mem_ctrl.dram.perBankWrBursts::0             0                       # Per bank write bursts (Count)
system.mem_ctrl.dram.perBankWrBursts::1             0                       # Per bank write bursts (Count)
system.mem_ctrl.dram.perBankWrBursts::2             0                       # Per bank write bursts (Count)
system.mem_ctrl.dram.perBankWrBursts::3             0                       # Per bank write bursts (Count)
system.mem_ctrl.dram.perBankWrBursts::4             0                       # Per bank write bursts (Count)
system.mem_ctrl.dram.perBankWrBursts::5             0                       # Per bank write bursts (Count)
system.mem_ctrl.dram.perBankWrBursts::6             0                       # Per bank write bursts (Count)
system.mem_ctrl.dram.perBankWrBursts::7             0                       # Per bank write bursts (Count)
system.mem_ctrl.dram.perBankWrBursts::8             0                       # Per bank write bursts (Count)
system.mem_ctrl.dram.perBankWrBursts::9             0                       # Per bank write bursts (Count)
system.mem_ctrl.dram.perBankWrBursts::10            0                       # Per bank write bursts (Count)
system.mem_ctrl.dram.perBankWrBursts::11            0                       # Per bank write bursts (Count)
system.mem_ctrl.dram.perBankWrBursts::12            0                       # Per bank write bursts (Count)
system.mem_ctrl.dram.perBankWrBursts::13            0                       # Per bank write bursts (Count)
system.mem_ctrl.dram.perBankWrBursts::14            0                       # Per bank write bursts (Count)
system.mem_ctrl.dram.perBankWrBursts::15            0                       # Per bank write bursts (Count)
system.mem_ctrl.dram.perBankWrBursts::16            0                       # Per bank write bursts (Count)
system.mem_ctrl.dram.perBankWrBursts::17            0                       # Per bank write bursts (Count)
system.mem_ctrl.dram.perBankWrBursts::18            0                       # Per bank write bursts (Count)
system.mem_ctrl.dram.perBankWrBursts::19            0                       # Per bank write bursts (Count)
system.mem_ctrl.dram.perBankWrBursts::20            0                       # Per bank write bursts (Count)
system.mem_ctrl.dram.perBankWrBursts::21            0                       # Per bank write bursts (Count)
system.mem_ctrl.dram.perBankWrBursts::22            0                       # Per bank write bursts (Count)
system.mem_ctrl.dram.perBankWrBursts::23            0                       # Per bank write bursts (Count)
system.mem_ctrl.dram.perBankWrBursts::24            0                       # Per bank write bursts (Count)
system.mem_ctrl.dram.perBankWrBursts::25            0                       # Per bank write bursts (Count)
system.mem_ctrl.dram.perBankWrBursts::26            0                       # Per bank write bursts (Count)
system.mem_ctrl.dram.perBankWrBursts::27            0                       # Per bank write bursts (Count)
system.mem_ctrl.dram.perBankWrBursts::28            0                       # Per bank write bursts (Count)
system.mem_ctrl.dram.perBankWrBursts::29            0                       # Per bank write bursts (Count)
system.mem_ctrl.dram.perBankWrBursts::30            0                       # Per bank write bursts (Count)
system.mem_ctrl.dram.perBankWrBursts::31            0                       # Per bank write bursts (Count)
system.mem_ctrl.dram.totQLat                  2149580                       # Total ticks spent queuing (Tick)
system.mem_ctrl.dram.totBusLat                1282820                       # Total ticks spent in databus transfers (Tick)
system.mem_ctrl.dram.totMemAccLat             8884000                       # Total ticks spent from burst creation until serviced by the DRAM (Tick)
system.mem_ctrl.dram.avgQLat                  5583.32                       # Average queueing delay per DRAM burst ((Tick/Count))
system.mem_ctrl.dram.avgBusLat                3332.00                       # Average bus latency per DRAM burst ((Tick/Count))
system.mem_ctrl.dram.avgMemAccLat            23075.32                       # Average memory access latency per DRAM burst ((Tick/Count))
system.mem_ctrl.dram.readRowHits                  321                       # Number of row buffer hits during reads (Count)
system.mem_ctrl.dram.writeRowHits                   0                       # Number of row buffer hits during writes (Count)
system.mem_ctrl.dram.readRowHitRate             83.38                       # Row buffer hit rate for reads (Ratio)
system.mem_ctrl.dram.writeRowHitRate              nan                       # Row buffer hit rate for writes (Ratio)
system.mem_ctrl.dram.bytesPerActivate::samples           60                       # Bytes accessed per row activation (Byte)
system.mem_ctrl.dram.bytesPerActivate::mean   394.666667                       # Bytes accessed per row activation (Byte)
system.mem_ctrl.dram.bytesPerActivate::gmean   256.059480                       # Bytes accessed per row activation (Byte)
system.mem_ctrl.dram.bytesPerActivate::stdev   344.986105                       # Bytes accessed per row activation (Byte)
system.mem_ctrl.dram.bytesPerActivate::0-127           13     21.67%     21.67% # Bytes accessed per row activation (Byte)
system.mem_ctrl.dram.bytesPerActivate::128-255           15     25.00%     46.67% # Bytes accessed per row activation (Byte)
system.mem_ctrl.dram.bytesPerActivate::256-383            9     15.00%     61.67% # Bytes accessed per row activation (Byte)
system.mem_ctrl.dram.bytesPerActivate::384-511            4      6.67%     68.33% # Bytes accessed per row activation (Byte)
system.mem_ctrl.dram.bytesPerActivate::512-639            5      8.33%     76.67% # Bytes accessed per row activation (Byte)
system.mem_ctrl.dram.bytesPerActivate::640-767            2      3.33%     80.00% # Bytes accessed per row activation (Byte)
system.mem_ctrl.dram.bytesPerActivate::768-895            1      1.67%     81.67% # Bytes accessed per row activation (Byte)
system.mem_ctrl.dram.bytesPerActivate::896-1023            2      3.33%     85.00% # Bytes accessed per row activation (Byte)
system.mem_ctrl.dram.bytesPerActivate::1024-1151            9     15.00%    100.00% # Bytes accessed per row activation (Byte)
system.mem_ctrl.dram.bytesPerActivate::total           60                       # Bytes accessed per row activation (Byte)
system.mem_ctrl.dram.bytesRead                  24640                       # Total bytes read (Byte)
system.mem_ctrl.dram.bytesWritten                   0                       # Total bytes written (Byte)
system.mem_ctrl.dram.avgRdBW               724.439544                       # Average DRAM read bandwidth in MiBytes/s ((Byte/Second))
system.mem_ctrl.dram.avgWrBW                        0                       # Average DRAM write bandwidth in MiBytes/s ((Byte/Second))
system.mem_ctrl.dram.peakBW                  19207.00                       # Theoretical peak bandwidth in MiByte/s ((Byte/Second))
system.mem_ctrl.dram.busUtil                     3.77                       # Data bus utilization in percentage (Ratio)
system.mem_ctrl.dram.busUtilRead                 3.77                       # Data bus utilization in percentage for reads (Ratio)
system.mem_ctrl.dram.busUtilWrite                0.00                       # Data bus utilization in percentage for writes (Ratio)
system.mem_ctrl.dram.pageHitRate                83.38                       # Row buffer hit rate, read and write combined (Ratio)
system.mem_ctrl.dram.power_state.pwrStateResidencyTicks::UNDEFINED     34012500                       # Cumulative time (in ticks) in various power states (Tick)
system.mem_ctrl.dram.rank0.actEnergy     112275.072000                       # Energy for activate commands per rank (pJ) (Joule)
system.mem_ctrl.dram.rank0.preEnergy     140975.587200                       # Energy for precharge commands per rank (pJ) (Joule)
system.mem_ctrl.dram.rank0.readEnergy    1068404.467200                       # Energy for read commands per rank (pJ) (Joule)
system.mem_ctrl.dram.rank0.writeEnergy              0                       # Energy for write commands per rank (pJ) (Joule)
system.mem_ctrl.dram.rank0.refreshEnergy 5541510.508800                       # Energy for refresh commands per rank (pJ) (Joule)
system.mem_ctrl.dram.rank0.actBackEnergy 28794165.724800                       # Energy for active background per rank (pJ) (Joule)
system.mem_ctrl.dram.rank0.preBackEnergy 79392.230400                       # Energy for precharge background per rank (pJ) (Joule)
system.mem_ctrl.dram.rank0.actPowerDownEnergy            0                       # Energy for active power-down per rank (pJ) (Joule)
system.mem_ctrl.dram.rank0.prePowerDownEnergy            0                       # Energy for precharge power-down per rank (pJ) (Joule)
system.mem_ctrl.dram.rank0.selfRefreshEnergy            0                       # Energy for self refresh per rank (pJ) (Joule)
system.mem_ctrl.dram.rank0.totalEnergy   35736723.590400                       # Total energy per rank (pJ) (Joule)
system.mem_ctrl.dram.rank0.averagePower   1050.693821                       # Core power per rank (mW) (Watt)
system.mem_ctrl.dram.rank0.totalIdleTime            0                       # Total Idle time Per DRAM Rank (Tick)
system.mem_ctrl.dram.rank0.pwrStateTime::IDLE        11000                       # Time in different power states (Tick)
system.mem_ctrl.dram.rank0.pwrStateTime::REF      1400000                       # Time in different power states (Tick)
system.mem_ctrl.dram.rank0.pwrStateTime::SREF            0                       # Time in different power states (Tick)
system.mem_ctrl.dram.rank0.pwrStateTime::PRE_PDN            0                       # Time in different power states (Tick)
system.mem_ctrl.dram.rank0.pwrStateTime::ACT     32601500                       # Time in different power states (Tick)
system.mem_ctrl.dram.rank0.pwrStateTime::ACT_PDN            0                       # Time in different power states (Tick)
system.mem_ctrl.dram.rank1.actEnergy     87325.056000                       # Energy for activate commands per rank (pJ) (Joule)
system.mem_ctrl.dram.rank1.preEnergy     107804.860800                       # Energy for precharge commands per rank (pJ) (Joule)
system.mem_ctrl.dram.rank1.readEnergy    551027.500800                       # Energy for read commands per rank (pJ) (Joule)
system.mem_ctrl.dram.rank1.writeEnergy              0                       # Energy for write commands per rank (pJ) (Joule)
system.mem_ctrl.dram.rank1.refreshEnergy 5541510.508800                       # Energy for refresh commands per rank (pJ) (Joule)
system.mem_ctrl.dram.rank1.actBackEnergy 26540795.433600                       # Energy for active background per rank (pJ) (Joule)
system.mem_ctrl.dram.rank1.preBackEnergy 1810795.392000                       # Energy for precharge background per rank (pJ) (Joule)
system.mem_ctrl.dram.rank1.actPowerDownEnergy            0                       # Energy for active power-down per rank (pJ) (Joule)
system.mem_ctrl.dram.rank1.prePowerDownEnergy            0                       # Energy for precharge power-down per rank (pJ) (Joule)
system.mem_ctrl.dram.rank1.selfRefreshEnergy            0                       # Energy for self refresh per rank (pJ) (Joule)
system.mem_ctrl.dram.rank1.totalEnergy   34639258.752000                       # Total energy per rank (pJ) (Joule)
system.mem_ctrl.dram.rank1.averagePower   1018.427306                       # Core power per rank (mW) (Watt)
system.mem_ctrl.dram.rank1.totalIdleTime            0                       # Total Idle time Per DRAM Rank (Tick)
system.mem_ctrl.dram.rank1.pwrStateTime::IDLE      2662460                       # Time in different power states (Tick)
system.mem_ctrl.dram.rank1.pwrStateTime::REF      1400000                       # Time in different power states (Tick)
system.mem_ctrl.dram.rank1.pwrStateTime::SREF            0                       # Time in different power states (Tick)
system.mem_ctrl.dram.rank1.pwrStateTime::PRE_PDN            0                       # Time in different power states (Tick)
system.mem_ctrl.dram.rank1.pwrStateTime::ACT     29950040                       # Time in different power states (Tick)
system.mem_ctrl.dram.rank1.pwrStateTime::ACT_PDN            0                       # Time in different power states (Tick)
system.mem_ctrl.power_state.pwrStateResidencyTicks::UNDEFINED     34012500                       # Cumulative time (in ticks) in various power states (Tick)
system.membus.transDist::ReadResp                 343                       # Transaction distribution (Count)
system.membus.transDist::ReadExReq                 42                       # Transaction distribution (Count)
system.membus.transDist::ReadExResp                42                       # Transaction distribution (Count)
system.membus.transDist::ReadSharedReq            343                       # Transaction distribution (Count)
system.membus.pktCount_system.l2icache.mem_side_port::system.mem_ctrl.port          484                       # Packet count per connected requestor and responder (Count)
system.membus.pktCount_system.l2dcache.mem_side_port::system.mem_ctrl.port          286                       # Packet count per connected requestor and responder (Count)
system.membus.pktCount::total                     770                       # Packet count per connected requestor and responder (Count)
system.membus.pktSize_system.l2icache.mem_side_port::system.mem_ctrl.port        15488                       # Cumulative packet size per connected requestor and responder (Byte)
system.membus.pktSize_system.l2dcache.mem_side_port::system.mem_ctrl.port         9152                       # Cumulative packet size per connected requestor and responder (Byte)
system.membus.pktSize::total                    24640                       # Cumulative packet size per connected requestor and responder (Byte)
system.membus.snoops                                0                       # Total snoops (Count)
system.membus.snoopTraffic                          0                       # Total snoop traffic (Byte)
system.membus.snoopFanout::samples                385                       # Request fanout histogram (Count)
system.membus.snoopFanout::mean              0.085714                       # Request fanout histogram (Count)
system.membus.snoopFanout::stdev             0.280306                       # Request fanout histogram (Count)
system.membus.snoopFanout::underflows               0      0.00%      0.00% # Request fanout histogram (Count)
system.membus.snoopFanout::0                      352     91.43%     91.43% # Request fanout histogram (Count)
system.membus.snoopFanout::1                       33      8.57%    100.00% # Request fanout histogram (Count)
system.membus.snoopFanout::2                        0      0.00%    100.00% # Request fanout histogram (Count)
system.membus.snoopFanout::overflows                0      0.00%    100.00% # Request fanout histogram (Count)
system.membus.snoopFanout::min_value                0                       # Request fanout histogram (Count)
system.membus.snoopFanout::max_value                1                       # Request fanout histogram (Count)
system.membus.snoopFanout::total                  385                       # Request fanout histogram (Count)
system.membus.power_state.pwrStateResidencyTicks::UNDEFINED     34012500                       # Cumulative time (in ticks) in various power states (Tick)
system.membus.reqLayer0.occupancy              192500                       # Layer occupancy (ticks) (Tick)
system.membus.reqLayer0.utilization               0.0                       # Layer utilization (Ratio)
system.membus.respLayer0.occupancy             619696                       # Layer occupancy (ticks) (Tick)
system.membus.respLayer0.utilization              0.0                       # Layer utilization (Ratio)
system.membus.respLayer1.occupancy             366804                       # Layer occupancy (ticks) (Tick)
system.membus.respLayer1.utilization              0.0                       # Layer utilization (Ratio)
system.membus.snoop_filter.totRequests            385                       # Total number of requests made to the snoop filter. (Count)
system.membus.snoop_filter.hitSingleRequests           33                       # Number of requests hitting in the snoop filter with a single holder of the requested data. (Count)
system.membus.snoop_filter.hitMultiRequests            0                       # Number of requests hitting in the snoop filter with multiple (>1) holders of the requested data. (Count)
system.membus.snoop_filter.totSnoops                0                       # Total number of snoops made to the snoop filter. (Count)
system.membus.snoop_filter.hitSingleSnoops            0                       # Number of snoops hitting in the snoop filter with a single holder of the requested data. (Count)
system.membus.snoop_filter.hitMultiSnoops            0                       # Number of snoops hitting in the snoop filter with multiple (>1) holders of the requested data. (Count)
system.workload.inst.arm                            0                       # number of arm instructions executed (Count)
system.workload.inst.quiesce                        0                       # number of quiesce instructions executed (Count)

---------- End Simulation Statistics   ----------
