
---------- Begin Simulation Statistics ----------
simSeconds                                   3.079664                       # Number of seconds simulated (Second)
simTicks                                 3079664187500                       # Number of ticks simulated (Tick)
finalTick                                3079664187500                       # Number of ticks from beginning of simulation (restored from checkpoints and never reset) (Tick)
simFreq                                  1000000000000                       # The number of ticks per simulated second ((Tick/Second))
hostSeconds                                   1468.12                       # Real time elapsed on the host (Second)
hostTickRate                               2097690288                       # The number of ticks simulated per host second (ticks/s) ((Tick/Second))
hostMemory                                    2253044                       # Number of bytes of host memory used (Byte)
simInsts                                   1000000000                       # Number of instructions simulated (Count)
simOps                                     1083339658                       # Number of ops (including micro ops) simulated (Count)
hostInstRate                                   681142                       # Simulator instruction rate (inst/s) ((Count/Second))
hostOpRate                                     737909                       # Simulator op (including micro ops) rate (op/s) ((Count/Second))
system.clk_domain.clock                           500                       # Clock period in ticks (Tick)
system.clk_domain.voltage_domain.voltage            1                       # Voltage in Volts (Volt)
system.cpu.numCycles                       6159328375                       # Number of cpu cycles simulated (Cycle)
system.cpu.cpi                               6.136112                       # CPI: cycles per instruction (core level) ((Cycle/Count))
system.cpu.ipc                               0.162970                       # IPC: instructions per cycle (core level) ((Count/Cycle))
system.cpu.numWorkItemsStarted                      0                       # Number of work items this cpu started (Count)
system.cpu.numWorkItemsCompleted                    0                       # Number of work items this cpu completed (Count)
system.cpu.commitStats0.numInsts           1003783567                       # Number of instructions committed (thread level) (Count)
system.cpu.commitStats0.numOps             1088368704                       # Number of ops (including micro ops) committed (thread level) (Count)
system.cpu.commitStats0.numInstsNotNOP              0                       # Number of instructions committed excluding NOPs or prefetches (Count)
system.cpu.commitStats0.numOpsNotNOP                0                       # Number of Ops (including micro ops) Simulated (Count)
system.cpu.commitStats0.cpi                  6.136112                       # CPI: cycles per instruction (thread level) ((Cycle/Count))
system.cpu.commitStats0.ipc                  0.162970                       # IPC: instructions per cycle (thread level) ((Count/Cycle))
system.cpu.commitStats0.numMemRefs                  0                       # Number of memory references committed (Count)
system.cpu.commitStats0.numFpInsts                  0                       # Number of float instructions (Count)
system.cpu.commitStats0.numIntInsts         860476950                       # Number of integer instructions (Count)
system.cpu.commitStats0.numLoadInsts        258445453                       # Number of load instructions (Count)
system.cpu.commitStats0.numStoreInsts       114624381                       # Number of store instructions (Count)
system.cpu.commitStats0.numVecInsts                 0                       # Number of vector instructions (Count)
system.cpu.commitStats0.committedInstType::No_OpClass            0      0.00%      0.00% # Class of committed instruction. (Count)
system.cpu.commitStats0.committedInstType::IntAlu    712598049     65.47%     65.47% # Class of committed instruction. (Count)
system.cpu.commitStats0.committedInstType::IntMult      2700818      0.25%     65.72% # Class of committed instruction. (Count)
system.cpu.commitStats0.committedInstType::IntDiv            0      0.00%     65.72% # Class of committed instruction. (Count)
system.cpu.commitStats0.committedInstType::FloatAdd            0      0.00%     65.72% # Class of committed instruction. (Count)
system.cpu.commitStats0.committedInstType::FloatCmp            0      0.00%     65.72% # Class of committed instruction. (Count)
system.cpu.commitStats0.committedInstType::FloatCvt            0      0.00%     65.72% # Class of committed instruction. (Count)
system.cpu.commitStats0.committedInstType::FloatMult            0      0.00%     65.72% # Class of committed instruction. (Count)
system.cpu.commitStats0.committedInstType::FloatMultAcc            0      0.00%     65.72% # Class of committed instruction. (Count)
system.cpu.commitStats0.committedInstType::FloatDiv            0      0.00%     65.72% # Class of committed instruction. (Count)
system.cpu.commitStats0.committedInstType::FloatMisc            0      0.00%     65.72% # Class of committed instruction. (Count)
system.cpu.commitStats0.committedInstType::FloatSqrt            0      0.00%     65.72% # Class of committed instruction. (Count)
system.cpu.commitStats0.committedInstType::SimdAdd            0      0.00%     65.72% # Class of committed instruction. (Count)
system.cpu.commitStats0.committedInstType::SimdAddAcc            0      0.00%     65.72% # Class of committed instruction. (Count)
system.cpu.commitStats0.committedInstType::SimdAlu            0      0.00%     65.72% # Class of committed instruction. (Count)
system.cpu.commitStats0.committedInstType::SimdCmp            0      0.00%     65.72% # Class of committed instruction. (Count)
system.cpu.commitStats0.committedInstType::SimdCvt            0      0.00%     65.72% # Class of committed instruction. (Count)
system.cpu.commitStats0.committedInstType::SimdMisc            0      0.00%     65.72% # Class of committed instruction. (Count)
system.cpu.commitStats0.committedInstType::SimdMult            0      0.00%     65.72% # Class of committed instruction. (Count)
system.cpu.commitStats0.committedInstType::SimdMultAcc            0      0.00%     65.72% # Class of committed instruction. (Count)
system.cpu.commitStats0.committedInstType::SimdMatMultAcc            0      0.00%     65.72% # Class of committed instruction. (Count)
system.cpu.commitStats0.committedInstType::SimdShift            0      0.00%     65.72% # Class of committed instruction. (Count)
system.cpu.commitStats0.committedInstType::SimdShiftAcc            0      0.00%     65.72% # Class of committed instruction. (Count)
system.cpu.commitStats0.committedInstType::SimdDiv            0      0.00%     65.72% # Class of committed instruction. (Count)
system.cpu.commitStats0.committedInstType::SimdSqrt            0      0.00%     65.72% # Class of committed instruction. (Count)
system.cpu.commitStats0.committedInstType::SimdFloatAdd            0      0.00%     65.72% # Class of committed instruction. (Count)
system.cpu.commitStats0.committedInstType::SimdFloatAlu            0      0.00%     65.72% # Class of committed instruction. (Count)
system.cpu.commitStats0.committedInstType::SimdFloatCmp            0      0.00%     65.72% # Class of committed instruction. (Count)
system.cpu.commitStats0.committedInstType::SimdFloatCvt            0      0.00%     65.72% # Class of committed instruction. (Count)
system.cpu.commitStats0.committedInstType::SimdFloatDiv            0      0.00%     65.72% # Class of committed instruction. (Count)
system.cpu.commitStats0.committedInstType::SimdFloatMisc            3      0.00%     65.72% # Class of committed instruction. (Count)
system.cpu.commitStats0.committedInstType::SimdFloatMult            0      0.00%     65.72% # Class of committed instruction. (Count)
system.cpu.commitStats0.committedInstType::SimdFloatMultAcc            0      0.00%     65.72% # Class of committed instruction. (Count)
system.cpu.commitStats0.committedInstType::SimdFloatMatMultAcc            0      0.00%     65.72% # Class of committed instruction. (Count)
system.cpu.commitStats0.committedInstType::SimdFloatSqrt            0      0.00%     65.72% # Class of committed instruction. (Count)
system.cpu.commitStats0.committedInstType::SimdReduceAdd            0      0.00%     65.72% # Class of committed instruction. (Count)
system.cpu.commitStats0.committedInstType::SimdReduceAlu            0      0.00%     65.72% # Class of committed instruction. (Count)
system.cpu.commitStats0.committedInstType::SimdReduceCmp            0      0.00%     65.72% # Class of committed instruction. (Count)
system.cpu.commitStats0.committedInstType::SimdFloatReduceAdd            0      0.00%     65.72% # Class of committed instruction. (Count)
system.cpu.commitStats0.committedInstType::SimdFloatReduceCmp            0      0.00%     65.72% # Class of committed instruction. (Count)
system.cpu.commitStats0.committedInstType::SimdAes            0      0.00%     65.72% # Class of committed instruction. (Count)
system.cpu.commitStats0.committedInstType::SimdAesMix            0      0.00%     65.72% # Class of committed instruction. (Count)
system.cpu.commitStats0.committedInstType::SimdSha1Hash            0      0.00%     65.72% # Class of committed instruction. (Count)
system.cpu.commitStats0.committedInstType::SimdSha1Hash2            0      0.00%     65.72% # Class of committed instruction. (Count)
system.cpu.commitStats0.committedInstType::SimdSha256Hash            0      0.00%     65.72% # Class of committed instruction. (Count)
system.cpu.commitStats0.committedInstType::SimdSha256Hash2            0      0.00%     65.72% # Class of committed instruction. (Count)
system.cpu.commitStats0.committedInstType::SimdShaSigma2            0      0.00%     65.72% # Class of committed instruction. (Count)
system.cpu.commitStats0.committedInstType::SimdShaSigma3            0      0.00%     65.72% # Class of committed instruction. (Count)
system.cpu.commitStats0.committedInstType::SimdPredAlu            0      0.00%     65.72% # Class of committed instruction. (Count)
system.cpu.commitStats0.committedInstType::Matrix            0      0.00%     65.72% # Class of committed instruction. (Count)
system.cpu.commitStats0.committedInstType::MatrixMov            0      0.00%     65.72% # Class of committed instruction. (Count)
system.cpu.commitStats0.committedInstType::MatrixOP            0      0.00%     65.72% # Class of committed instruction. (Count)
system.cpu.commitStats0.committedInstType::MemRead    258445453     23.75%     89.47% # Class of committed instruction. (Count)
system.cpu.commitStats0.committedInstType::MemWrite    114624381     10.53%    100.00% # Class of committed instruction. (Count)
system.cpu.commitStats0.committedInstType::FloatMemRead            0      0.00%    100.00% # Class of committed instruction. (Count)
system.cpu.commitStats0.committedInstType::FloatMemWrite            0      0.00%    100.00% # Class of committed instruction. (Count)
system.cpu.commitStats0.committedInstType::IprAccess            0      0.00%    100.00% # Class of committed instruction. (Count)
system.cpu.commitStats0.committedInstType::InstPrefetch            0      0.00%    100.00% # Class of committed instruction. (Count)
system.cpu.commitStats0.committedInstType::VectorUnitStrideLoad            0      0.00%    100.00% # Class of committed instruction. (Count)
system.cpu.commitStats0.committedInstType::VectorUnitStrideStore            0      0.00%    100.00% # Class of committed instruction. (Count)
system.cpu.commitStats0.committedInstType::VectorUnitStrideMaskLoad            0      0.00%    100.00% # Class of committed instruction. (Count)
system.cpu.commitStats0.committedInstType::VectorUnitStrideMaskStore            0      0.00%    100.00% # Class of committed instruction. (Count)
system.cpu.commitStats0.committedInstType::VectorStridedLoad            0      0.00%    100.00% # Class of committed instruction. (Count)
system.cpu.commitStats0.committedInstType::VectorStridedStore            0      0.00%    100.00% # Class of committed instruction. (Count)
system.cpu.commitStats0.committedInstType::VectorIndexedLoad            0      0.00%    100.00% # Class of committed instruction. (Count)
system.cpu.commitStats0.committedInstType::VectorIndexedStore            0      0.00%    100.00% # Class of committed instruction. (Count)
system.cpu.commitStats0.committedInstType::VectorUnitStrideFaultOnlyFirstLoad            0      0.00%    100.00% # Class of committed instruction. (Count)
system.cpu.commitStats0.committedInstType::VectorWholeRegisterLoad            0      0.00%    100.00% # Class of committed instruction. (Count)
system.cpu.commitStats0.committedInstType::VectorWholeRegisterStore            0      0.00%    100.00% # Class of committed instruction. (Count)
system.cpu.commitStats0.committedInstType::VectorIntegerArith            0      0.00%    100.00% # Class of committed instruction. (Count)
system.cpu.commitStats0.committedInstType::VectorFloatArith            0      0.00%    100.00% # Class of committed instruction. (Count)
system.cpu.commitStats0.committedInstType::VectorFloatConvert            0      0.00%    100.00% # Class of committed instruction. (Count)
system.cpu.commitStats0.committedInstType::VectorIntegerReduce            0      0.00%    100.00% # Class of committed instruction. (Count)
system.cpu.commitStats0.committedInstType::VectorFloatReduce            0      0.00%    100.00% # Class of committed instruction. (Count)
system.cpu.commitStats0.committedInstType::VectorMisc            0      0.00%    100.00% # Class of committed instruction. (Count)
system.cpu.commitStats0.committedInstType::VectorIntegerExtension            0      0.00%    100.00% # Class of committed instruction. (Count)
system.cpu.commitStats0.committedInstType::VectorConfig            0      0.00%    100.00% # Class of committed instruction. (Count)
system.cpu.commitStats0.committedInstType::total   1088368704                       # Class of committed instruction. (Count)
system.cpu.commitStats0.committedControl::IsControl    235409103                       # Class of control type instructions committed (Count)
system.cpu.commitStats0.committedControl::IsDirectControl    227278704                       # Class of control type instructions committed (Count)
system.cpu.commitStats0.committedControl::IsIndirectControl      8130399                       # Class of control type instructions committed (Count)
system.cpu.commitStats0.committedControl::IsCondControl    196544703                       # Class of control type instructions committed (Count)
system.cpu.commitStats0.committedControl::IsUncondControl     38864400                       # Class of control type instructions committed (Count)
system.cpu.commitStats0.committedControl::IsCall      6822977                       # Class of control type instructions committed (Count)
system.cpu.commitStats0.committedControl::IsReturn      6822978                       # Class of control type instructions committed (Count)
system.cpu.dcache.demandHits::cpu.data      333767293                       # number of demand (read+write) hits (Count)
system.cpu.dcache.demandHits::total         333767293                       # number of demand (read+write) hits (Count)
system.cpu.dcache.overallHits::cpu.data     333977960                       # number of overall hits (Count)
system.cpu.dcache.overallHits::total        333977960                       # number of overall hits (Count)
system.cpu.dcache.demandMisses::cpu.data     33197853                       # number of demand (read+write) misses (Count)
system.cpu.dcache.demandMisses::total        33197853                       # number of demand (read+write) misses (Count)
system.cpu.dcache.overallMisses::cpu.data     33197854                       # number of overall misses (Count)
system.cpu.dcache.overallMisses::total       33197854                       # number of overall misses (Count)
system.cpu.dcache.demandMissLatency::cpu.data 1607673490500                       # number of demand (read+write) miss ticks (Tick)
system.cpu.dcache.demandMissLatency::total 1607673490500                       # number of demand (read+write) miss ticks (Tick)
system.cpu.dcache.overallMissLatency::cpu.data 1607673490500                       # number of overall miss ticks (Tick)
system.cpu.dcache.overallMissLatency::total 1607673490500                       # number of overall miss ticks (Tick)
system.cpu.dcache.demandAccesses::cpu.data    366965146                       # number of demand (read+write) accesses (Count)
system.cpu.dcache.demandAccesses::total     366965146                       # number of demand (read+write) accesses (Count)
system.cpu.dcache.overallAccesses::cpu.data    367175814                       # number of overall (read+write) accesses (Count)
system.cpu.dcache.overallAccesses::total    367175814                       # number of overall (read+write) accesses (Count)
system.cpu.dcache.demandMissRate::cpu.data     0.090466                       # miss rate for demand accesses (Ratio)
system.cpu.dcache.demandMissRate::total      0.090466                       # miss rate for demand accesses (Ratio)
system.cpu.dcache.overallMissRate::cpu.data     0.090414                       # miss rate for overall accesses (Ratio)
system.cpu.dcache.overallMissRate::total     0.090414                       # miss rate for overall accesses (Ratio)
system.cpu.dcache.demandAvgMissLatency::cpu.data 48427.032028                       # average overall miss latency in ticks ((Tick/Count))
system.cpu.dcache.demandAvgMissLatency::total 48427.032028                       # average overall miss latency in ticks ((Tick/Count))
system.cpu.dcache.overallAvgMissLatency::cpu.data 48427.030570                       # average overall miss latency ((Tick/Count))
system.cpu.dcache.overallAvgMissLatency::total 48427.030570                       # average overall miss latency ((Tick/Count))
system.cpu.dcache.blockedCycles::no_mshrs            0                       # number of cycles access was blocked (Cycle)
system.cpu.dcache.blockedCycles::no_targets            0                       # number of cycles access was blocked (Cycle)
system.cpu.dcache.blockedCauses::no_mshrs            0                       # number of times access was blocked (Count)
system.cpu.dcache.blockedCauses::no_targets            0                       # number of times access was blocked (Count)
system.cpu.dcache.avgBlocked::no_mshrs            nan                       # average number of cycles each access was blocked ((Cycle/Count))
system.cpu.dcache.avgBlocked::no_targets          nan                       # average number of cycles each access was blocked ((Cycle/Count))
system.cpu.dcache.writebacks::writebacks      8349610                       # number of writebacks (Count)
system.cpu.dcache.writebacks::total           8349610                       # number of writebacks (Count)
system.cpu.dcache.demandMshrMisses::cpu.data     33197853                       # number of demand (read+write) MSHR misses (Count)
system.cpu.dcache.demandMshrMisses::total     33197853                       # number of demand (read+write) MSHR misses (Count)
system.cpu.dcache.overallMshrMisses::cpu.data     33197854                       # number of overall MSHR misses (Count)
system.cpu.dcache.overallMshrMisses::total     33197854                       # number of overall MSHR misses (Count)
system.cpu.dcache.demandMshrMissLatency::cpu.data 1574475637500                       # number of demand (read+write) MSHR miss ticks (Tick)
system.cpu.dcache.demandMshrMissLatency::total 1574475637500                       # number of demand (read+write) MSHR miss ticks (Tick)
system.cpu.dcache.overallMshrMissLatency::cpu.data 1574475702000                       # number of overall MSHR miss ticks (Tick)
system.cpu.dcache.overallMshrMissLatency::total 1574475702000                       # number of overall MSHR miss ticks (Tick)
system.cpu.dcache.demandMshrMissRate::cpu.data     0.090466                       # mshr miss ratio for demand accesses (Ratio)
system.cpu.dcache.demandMshrMissRate::total     0.090466                       # mshr miss ratio for demand accesses (Ratio)
system.cpu.dcache.overallMshrMissRate::cpu.data     0.090414                       # mshr miss ratio for overall accesses (Ratio)
system.cpu.dcache.overallMshrMissRate::total     0.090414                       # mshr miss ratio for overall accesses (Ratio)
system.cpu.dcache.demandAvgMshrMissLatency::cpu.data 47427.032028                       # average overall mshr miss latency ((Tick/Count))
system.cpu.dcache.demandAvgMshrMissLatency::total 47427.032028                       # average overall mshr miss latency ((Tick/Count))
system.cpu.dcache.overallAvgMshrMissLatency::cpu.data 47427.032543                       # average overall mshr miss latency ((Tick/Count))
system.cpu.dcache.overallAvgMshrMissLatency::total 47427.032543                       # average overall mshr miss latency ((Tick/Count))
system.cpu.dcache.replacements               33197363                       # number of replacements (Count)
system.cpu.dcache.LoadLockedReq.hits::cpu.data      1262984                       # number of LoadLockedReq hits (Count)
system.cpu.dcache.LoadLockedReq.hits::total      1262984                       # number of LoadLockedReq hits (Count)
system.cpu.dcache.LoadLockedReq.misses::cpu.data           21                       # number of LoadLockedReq misses (Count)
system.cpu.dcache.LoadLockedReq.misses::total           21                       # number of LoadLockedReq misses (Count)
system.cpu.dcache.LoadLockedReq.missLatency::cpu.data       392500                       # number of LoadLockedReq miss ticks (Tick)
system.cpu.dcache.LoadLockedReq.missLatency::total       392500                       # number of LoadLockedReq miss ticks (Tick)
system.cpu.dcache.LoadLockedReq.accesses::cpu.data      1263005                       # number of LoadLockedReq accesses(hits+misses) (Count)
system.cpu.dcache.LoadLockedReq.accesses::total      1263005                       # number of LoadLockedReq accesses(hits+misses) (Count)
system.cpu.dcache.LoadLockedReq.missRate::cpu.data     0.000017                       # miss rate for LoadLockedReq accesses (Ratio)
system.cpu.dcache.LoadLockedReq.missRate::total     0.000017                       # miss rate for LoadLockedReq accesses (Ratio)
system.cpu.dcache.LoadLockedReq.avgMissLatency::cpu.data 18690.476190                       # average LoadLockedReq miss latency ((Tick/Count))
system.cpu.dcache.LoadLockedReq.avgMissLatency::total 18690.476190                       # average LoadLockedReq miss latency ((Tick/Count))
system.cpu.dcache.LoadLockedReq.mshrMisses::cpu.data           21                       # number of LoadLockedReq MSHR misses (Count)
system.cpu.dcache.LoadLockedReq.mshrMisses::total           21                       # number of LoadLockedReq MSHR misses (Count)
system.cpu.dcache.LoadLockedReq.mshrMissLatency::cpu.data       371500                       # number of LoadLockedReq MSHR miss ticks (Tick)
system.cpu.dcache.LoadLockedReq.mshrMissLatency::total       371500                       # number of LoadLockedReq MSHR miss ticks (Tick)
system.cpu.dcache.LoadLockedReq.mshrMissRate::cpu.data     0.000017                       # mshr miss rate for LoadLockedReq accesses (Ratio)
system.cpu.dcache.LoadLockedReq.mshrMissRate::total     0.000017                       # mshr miss rate for LoadLockedReq accesses (Ratio)
system.cpu.dcache.LoadLockedReq.avgMshrMissLatency::cpu.data 17690.476190                       # average LoadLockedReq mshr miss latency ((Tick/Count))
system.cpu.dcache.LoadLockedReq.avgMshrMissLatency::total 17690.476190                       # average LoadLockedReq mshr miss latency ((Tick/Count))
system.cpu.dcache.ReadReq.hits::cpu.data    224099701                       # number of ReadReq hits (Count)
system.cpu.dcache.ReadReq.hits::total       224099701                       # number of ReadReq hits (Count)
system.cpu.dcache.ReadReq.misses::cpu.data     32260319                       # number of ReadReq misses (Count)
system.cpu.dcache.ReadReq.misses::total      32260319                       # number of ReadReq misses (Count)
system.cpu.dcache.ReadReq.missLatency::cpu.data 1576520479000                       # number of ReadReq miss ticks (Tick)
system.cpu.dcache.ReadReq.missLatency::total 1576520479000                       # number of ReadReq miss ticks (Tick)
system.cpu.dcache.ReadReq.accesses::cpu.data    256360020                       # number of ReadReq accesses(hits+misses) (Count)
system.cpu.dcache.ReadReq.accesses::total    256360020                       # number of ReadReq accesses(hits+misses) (Count)
system.cpu.dcache.ReadReq.missRate::cpu.data     0.125840                       # miss rate for ReadReq accesses (Ratio)
system.cpu.dcache.ReadReq.missRate::total     0.125840                       # miss rate for ReadReq accesses (Ratio)
system.cpu.dcache.ReadReq.avgMissLatency::cpu.data 48868.719463                       # average ReadReq miss latency ((Tick/Count))
system.cpu.dcache.ReadReq.avgMissLatency::total 48868.719463                       # average ReadReq miss latency ((Tick/Count))
system.cpu.dcache.ReadReq.mshrMisses::cpu.data     32260319                       # number of ReadReq MSHR misses (Count)
system.cpu.dcache.ReadReq.mshrMisses::total     32260319                       # number of ReadReq MSHR misses (Count)
system.cpu.dcache.ReadReq.mshrMissLatency::cpu.data 1544260160000                       # number of ReadReq MSHR miss ticks (Tick)
system.cpu.dcache.ReadReq.mshrMissLatency::total 1544260160000                       # number of ReadReq MSHR miss ticks (Tick)
system.cpu.dcache.ReadReq.mshrMissRate::cpu.data     0.125840                       # mshr miss rate for ReadReq accesses (Ratio)
system.cpu.dcache.ReadReq.mshrMissRate::total     0.125840                       # mshr miss rate for ReadReq accesses (Ratio)
system.cpu.dcache.ReadReq.avgMshrMissLatency::cpu.data 47868.719463                       # average ReadReq mshr miss latency ((Tick/Count))
system.cpu.dcache.ReadReq.avgMshrMissLatency::total 47868.719463                       # average ReadReq mshr miss latency ((Tick/Count))
system.cpu.dcache.SoftPFReq.hits::cpu.data       210667                       # number of SoftPFReq hits (Count)
system.cpu.dcache.SoftPFReq.hits::total        210667                       # number of SoftPFReq hits (Count)
system.cpu.dcache.SoftPFReq.misses::cpu.data            1                       # number of SoftPFReq misses (Count)
system.cpu.dcache.SoftPFReq.misses::total            1                       # number of SoftPFReq misses (Count)
system.cpu.dcache.SoftPFReq.accesses::cpu.data       210668                       # number of SoftPFReq accesses(hits+misses) (Count)
system.cpu.dcache.SoftPFReq.accesses::total       210668                       # number of SoftPFReq accesses(hits+misses) (Count)
system.cpu.dcache.SoftPFReq.missRate::cpu.data     0.000005                       # miss rate for SoftPFReq accesses (Ratio)
system.cpu.dcache.SoftPFReq.missRate::total     0.000005                       # miss rate for SoftPFReq accesses (Ratio)
system.cpu.dcache.SoftPFReq.mshrMisses::cpu.data            1                       # number of SoftPFReq MSHR misses (Count)
system.cpu.dcache.SoftPFReq.mshrMisses::total            1                       # number of SoftPFReq MSHR misses (Count)
system.cpu.dcache.SoftPFReq.mshrMissLatency::cpu.data        64500                       # number of SoftPFReq MSHR miss ticks (Tick)
system.cpu.dcache.SoftPFReq.mshrMissLatency::total        64500                       # number of SoftPFReq MSHR miss ticks (Tick)
system.cpu.dcache.SoftPFReq.mshrMissRate::cpu.data     0.000005                       # mshr miss rate for SoftPFReq accesses (Ratio)
system.cpu.dcache.SoftPFReq.mshrMissRate::total     0.000005                       # mshr miss rate for SoftPFReq accesses (Ratio)
system.cpu.dcache.SoftPFReq.avgMshrMissLatency::cpu.data        64500                       # average SoftPFReq mshr miss latency ((Tick/Count))
system.cpu.dcache.SoftPFReq.avgMshrMissLatency::total        64500                       # average SoftPFReq mshr miss latency ((Tick/Count))
system.cpu.dcache.StoreCondReq.hits::cpu.data      1263005                       # number of StoreCondReq hits (Count)
system.cpu.dcache.StoreCondReq.hits::total      1263005                       # number of StoreCondReq hits (Count)
system.cpu.dcache.StoreCondReq.accesses::cpu.data      1263005                       # number of StoreCondReq accesses(hits+misses) (Count)
system.cpu.dcache.StoreCondReq.accesses::total      1263005                       # number of StoreCondReq accesses(hits+misses) (Count)
system.cpu.dcache.WriteReq.hits::cpu.data    109667592                       # number of WriteReq hits (Count)
system.cpu.dcache.WriteReq.hits::total      109667592                       # number of WriteReq hits (Count)
system.cpu.dcache.WriteReq.misses::cpu.data       937534                       # number of WriteReq misses (Count)
system.cpu.dcache.WriteReq.misses::total       937534                       # number of WriteReq misses (Count)
system.cpu.dcache.WriteReq.missLatency::cpu.data  31153011500                       # number of WriteReq miss ticks (Tick)
system.cpu.dcache.WriteReq.missLatency::total  31153011500                       # number of WriteReq miss ticks (Tick)
system.cpu.dcache.WriteReq.accesses::cpu.data    110605126                       # number of WriteReq accesses(hits+misses) (Count)
system.cpu.dcache.WriteReq.accesses::total    110605126                       # number of WriteReq accesses(hits+misses) (Count)
system.cpu.dcache.WriteReq.missRate::cpu.data     0.008476                       # miss rate for WriteReq accesses (Ratio)
system.cpu.dcache.WriteReq.missRate::total     0.008476                       # miss rate for WriteReq accesses (Ratio)
system.cpu.dcache.WriteReq.avgMissLatency::cpu.data 33228.673840                       # average WriteReq miss latency ((Tick/Count))
system.cpu.dcache.WriteReq.avgMissLatency::total 33228.673840                       # average WriteReq miss latency ((Tick/Count))
system.cpu.dcache.WriteReq.mshrMisses::cpu.data       937534                       # number of WriteReq MSHR misses (Count)
system.cpu.dcache.WriteReq.mshrMisses::total       937534                       # number of WriteReq MSHR misses (Count)
system.cpu.dcache.WriteReq.mshrMissLatency::cpu.data  30215477500                       # number of WriteReq MSHR miss ticks (Tick)
system.cpu.dcache.WriteReq.mshrMissLatency::total  30215477500                       # number of WriteReq MSHR miss ticks (Tick)
system.cpu.dcache.WriteReq.mshrMissRate::cpu.data     0.008476                       # mshr miss rate for WriteReq accesses (Ratio)
system.cpu.dcache.WriteReq.mshrMissRate::total     0.008476                       # mshr miss rate for WriteReq accesses (Ratio)
system.cpu.dcache.WriteReq.avgMshrMissLatency::cpu.data 32228.673840                       # average WriteReq mshr miss latency ((Tick/Count))
system.cpu.dcache.WriteReq.avgMshrMissLatency::total 32228.673840                       # average WriteReq mshr miss latency ((Tick/Count))
system.cpu.dcache.power_state.pwrStateResidencyTicks::UNDEFINED 3079664187500                       # Cumulative time (in ticks) in various power states (Tick)
system.cpu.dcache.tags.tagsInUse           511.963418                       # Average ticks per tags in use ((Tick/Count))
system.cpu.dcache.tags.totalRefs            369701824                       # Total number of references to valid blocks. (Count)
system.cpu.dcache.tags.sampledRefs           33197875                       # Sample count of references to valid blocks. (Count)
system.cpu.dcache.tags.avgRefs              11.136310                       # Average number of references to valid blocks. ((Count/Count))
system.cpu.dcache.tags.warmupTick              163500                       # The tick when the warmup percentage was hit. (Tick)
system.cpu.dcache.tags.occupancies::cpu.data   511.963418                       # Average occupied blocks per tick, per requestor ((Count/Tick))
system.cpu.dcache.tags.avgOccs::cpu.data     0.999929                       # Average percentage of cache occupancy ((Ratio/Tick))
system.cpu.dcache.tags.avgOccs::total        0.999929                       # Average percentage of cache occupancy ((Ratio/Tick))
system.cpu.dcache.tags.occupanciesTaskId::1024          512                       # Occupied blocks per task id (Count)
system.cpu.dcache.tags.ageTaskId_1024::0          137                       # Occupied blocks per task id, per block age (Count)
system.cpu.dcache.tags.ageTaskId_1024::1          373                       # Occupied blocks per task id, per block age (Count)
system.cpu.dcache.tags.ageTaskId_1024::2            1                       # Occupied blocks per task id, per block age (Count)
system.cpu.dcache.tags.ageTaskId_1024::3            1                       # Occupied blocks per task id, per block age (Count)
system.cpu.dcache.tags.ratioOccsTaskId::1024            1                       # Ratio of occupied blocks and all blocks, per task id (Ratio)
system.cpu.dcache.tags.tagAccesses          772601523                       # Number of tag accesses (Count)
system.cpu.dcache.tags.dataAccesses         772601523                       # Number of data accesses (Count)
system.cpu.dcache.tags.power_state.pwrStateResidencyTicks::UNDEFINED 3079664187500                       # Cumulative time (in ticks) in various power states (Tick)
system.cpu.exec_context.thread_0.numMatAluAccesses            0                       # Number of matrix alu accesses (Count)
system.cpu.exec_context.thread_0.numCallsReturns     13645955                       # Number of times a function call or return occured (Count)
system.cpu.exec_context.thread_0.numMatInsts            0                       # Number of matrix instructions (Count)
system.cpu.exec_context.thread_0.numIdleCycles            0                       # Number of idle cycles (Cycle)
system.cpu.exec_context.thread_0.numBusyCycles   6159328375                       # Number of busy cycles (Cycle)
system.cpu.exec_context.thread_0.notIdleFraction            1                       # Percentage of non-idle cycles (Ratio)
system.cpu.exec_context.thread_0.idleFraction            0                       # Percentage of idle cycles (Ratio)
system.cpu.executeStats0.numInsts                   0                       # Number of executed instructions (Count)
system.cpu.executeStats0.numNop                     0                       # Number of nop insts executed (Count)
system.cpu.executeStats0.numBranches                0                       # Number of branches executed (Count)
system.cpu.executeStats0.numLoadInsts               0                       # Number of load instructions executed (Count)
system.cpu.executeStats0.numStoreInsts      373069834                       # Number of stores executed (Count)
system.cpu.executeStats0.instRate                   0                       # Inst execution rate ((Count/Cycle))
system.cpu.executeStats0.numFpRegWrites             0                       # Number of times the floating registers were written (Count)
system.cpu.executeStats0.numIntAluAccesses    860476950                       # Number of integer alu accesses (Count)
system.cpu.executeStats0.numIntRegReads    1086640190                       # Number of times the integer registers were read (Count)
system.cpu.executeStats0.numIntRegWrites    557893422                       # Number of times the integer registers were written (Count)
system.cpu.executeStats0.numMemRefs         373069834                       # Number of memory refs (Count)
system.cpu.executeStats0.numMiscRegReads    373087685                       # Number of times the Misc registers were read (Count)
system.cpu.executeStats0.numMiscRegWrites      2526011                       # Number of times the Misc registers were written (Count)
system.cpu.executeStats0.numVecAluAccesses            0                       # Number of vector alu accesses (Count)
system.cpu.executeStats0.numVecRegReads            16                       # Number of times the vector registers were read (Count)
system.cpu.executeStats0.numDiscardedOps            0                       # Number of ops (including micro ops) which were discarded before commit (Count)
system.cpu.fetchStats0.numInsts            1003783567                       # Number of instructions fetched (thread level) (Count)
system.cpu.fetchStats0.numOps              1088368704                       # Number of ops (including micro ops) fetched (thread level) (Count)
system.cpu.fetchStats0.fetchRate             0.162970                       # Number of inst fetches per cycle ((Count/Cycle))
system.cpu.fetchStats0.numBranches          235409103                       # Number of branches fetched (Count)
system.cpu.fetchStats0.branchRate            0.038220                       # Number of branch fetches per cycle (Ratio)
system.cpu.fetchStats0.numFetchSuspends             0                       # Number of times Execute suspended instruction fetching (Count)
system.cpu.icache.demandHits::cpu.inst     1122605083                       # number of demand (read+write) hits (Count)
system.cpu.icache.demandHits::total        1122605083                       # number of demand (read+write) hits (Count)
system.cpu.icache.overallHits::cpu.inst    1122605083                       # number of overall hits (Count)
system.cpu.icache.overallHits::total       1122605083                       # number of overall hits (Count)
system.cpu.icache.demandMisses::cpu.inst      1052908                       # number of demand (read+write) misses (Count)
system.cpu.icache.demandMisses::total         1052908                       # number of demand (read+write) misses (Count)
system.cpu.icache.overallMisses::cpu.inst      1052908                       # number of overall misses (Count)
system.cpu.icache.overallMisses::total        1052908                       # number of overall misses (Count)
system.cpu.icache.demandMissLatency::cpu.inst  13711586500                       # number of demand (read+write) miss ticks (Tick)
system.cpu.icache.demandMissLatency::total  13711586500                       # number of demand (read+write) miss ticks (Tick)
system.cpu.icache.overallMissLatency::cpu.inst  13711586500                       # number of overall miss ticks (Tick)
system.cpu.icache.overallMissLatency::total  13711586500                       # number of overall miss ticks (Tick)
system.cpu.icache.demandAccesses::cpu.inst   1123657991                       # number of demand (read+write) accesses (Count)
system.cpu.icache.demandAccesses::total    1123657991                       # number of demand (read+write) accesses (Count)
system.cpu.icache.overallAccesses::cpu.inst   1123657991                       # number of overall (read+write) accesses (Count)
system.cpu.icache.overallAccesses::total   1123657991                       # number of overall (read+write) accesses (Count)
system.cpu.icache.demandMissRate::cpu.inst     0.000937                       # miss rate for demand accesses (Ratio)
system.cpu.icache.demandMissRate::total      0.000937                       # miss rate for demand accesses (Ratio)
system.cpu.icache.overallMissRate::cpu.inst     0.000937                       # miss rate for overall accesses (Ratio)
system.cpu.icache.overallMissRate::total     0.000937                       # miss rate for overall accesses (Ratio)
system.cpu.icache.demandAvgMissLatency::cpu.inst 13022.587444                       # average overall miss latency in ticks ((Tick/Count))
system.cpu.icache.demandAvgMissLatency::total 13022.587444                       # average overall miss latency in ticks ((Tick/Count))
system.cpu.icache.overallAvgMissLatency::cpu.inst 13022.587444                       # average overall miss latency ((Tick/Count))
system.cpu.icache.overallAvgMissLatency::total 13022.587444                       # average overall miss latency ((Tick/Count))
system.cpu.icache.blockedCycles::no_mshrs            0                       # number of cycles access was blocked (Cycle)
system.cpu.icache.blockedCycles::no_targets            0                       # number of cycles access was blocked (Cycle)
system.cpu.icache.blockedCauses::no_mshrs            0                       # number of times access was blocked (Count)
system.cpu.icache.blockedCauses::no_targets            0                       # number of times access was blocked (Count)
system.cpu.icache.avgBlocked::no_mshrs            nan                       # average number of cycles each access was blocked ((Cycle/Count))
system.cpu.icache.avgBlocked::no_targets          nan                       # average number of cycles each access was blocked ((Cycle/Count))
system.cpu.icache.demandMshrMisses::cpu.inst      1052908                       # number of demand (read+write) MSHR misses (Count)
system.cpu.icache.demandMshrMisses::total      1052908                       # number of demand (read+write) MSHR misses (Count)
system.cpu.icache.overallMshrMisses::cpu.inst      1052908                       # number of overall MSHR misses (Count)
system.cpu.icache.overallMshrMisses::total      1052908                       # number of overall MSHR misses (Count)
system.cpu.icache.demandMshrMissLatency::cpu.inst  12658678500                       # number of demand (read+write) MSHR miss ticks (Tick)
system.cpu.icache.demandMshrMissLatency::total  12658678500                       # number of demand (read+write) MSHR miss ticks (Tick)
system.cpu.icache.overallMshrMissLatency::cpu.inst  12658678500                       # number of overall MSHR miss ticks (Tick)
system.cpu.icache.overallMshrMissLatency::total  12658678500                       # number of overall MSHR miss ticks (Tick)
system.cpu.icache.demandMshrMissRate::cpu.inst     0.000937                       # mshr miss ratio for demand accesses (Ratio)
system.cpu.icache.demandMshrMissRate::total     0.000937                       # mshr miss ratio for demand accesses (Ratio)
system.cpu.icache.overallMshrMissRate::cpu.inst     0.000937                       # mshr miss ratio for overall accesses (Ratio)
system.cpu.icache.overallMshrMissRate::total     0.000937                       # mshr miss ratio for overall accesses (Ratio)
system.cpu.icache.demandAvgMshrMissLatency::cpu.inst 12022.587444                       # average overall mshr miss latency ((Tick/Count))
system.cpu.icache.demandAvgMshrMissLatency::total 12022.587444                       # average overall mshr miss latency ((Tick/Count))
system.cpu.icache.overallAvgMshrMissLatency::cpu.inst 12022.587444                       # average overall mshr miss latency ((Tick/Count))
system.cpu.icache.overallAvgMshrMissLatency::total 12022.587444                       # average overall mshr miss latency ((Tick/Count))
system.cpu.icache.replacements                1052558                       # number of replacements (Count)
system.cpu.icache.ReadReq.hits::cpu.inst   1122605083                       # number of ReadReq hits (Count)
system.cpu.icache.ReadReq.hits::total      1122605083                       # number of ReadReq hits (Count)
system.cpu.icache.ReadReq.misses::cpu.inst      1052908                       # number of ReadReq misses (Count)
system.cpu.icache.ReadReq.misses::total       1052908                       # number of ReadReq misses (Count)
system.cpu.icache.ReadReq.missLatency::cpu.inst  13711586500                       # number of ReadReq miss ticks (Tick)
system.cpu.icache.ReadReq.missLatency::total  13711586500                       # number of ReadReq miss ticks (Tick)
system.cpu.icache.ReadReq.accesses::cpu.inst   1123657991                       # number of ReadReq accesses(hits+misses) (Count)
system.cpu.icache.ReadReq.accesses::total   1123657991                       # number of ReadReq accesses(hits+misses) (Count)
system.cpu.icache.ReadReq.missRate::cpu.inst     0.000937                       # miss rate for ReadReq accesses (Ratio)
system.cpu.icache.ReadReq.missRate::total     0.000937                       # miss rate for ReadReq accesses (Ratio)
system.cpu.icache.ReadReq.avgMissLatency::cpu.inst 13022.587444                       # average ReadReq miss latency ((Tick/Count))
system.cpu.icache.ReadReq.avgMissLatency::total 13022.587444                       # average ReadReq miss latency ((Tick/Count))
system.cpu.icache.ReadReq.mshrMisses::cpu.inst      1052908                       # number of ReadReq MSHR misses (Count)
system.cpu.icache.ReadReq.mshrMisses::total      1052908                       # number of ReadReq MSHR misses (Count)
system.cpu.icache.ReadReq.mshrMissLatency::cpu.inst  12658678500                       # number of ReadReq MSHR miss ticks (Tick)
system.cpu.icache.ReadReq.mshrMissLatency::total  12658678500                       # number of ReadReq MSHR miss ticks (Tick)
system.cpu.icache.ReadReq.mshrMissRate::cpu.inst     0.000937                       # mshr miss rate for ReadReq accesses (Ratio)
system.cpu.icache.ReadReq.mshrMissRate::total     0.000937                       # mshr miss rate for ReadReq accesses (Ratio)
system.cpu.icache.ReadReq.avgMshrMissLatency::cpu.inst 12022.587444                       # average ReadReq mshr miss latency ((Tick/Count))
system.cpu.icache.ReadReq.avgMshrMissLatency::total 12022.587444                       # average ReadReq mshr miss latency ((Tick/Count))
system.cpu.icache.power_state.pwrStateResidencyTicks::UNDEFINED 3079664187500                       # Cumulative time (in ticks) in various power states (Tick)
system.cpu.icache.tags.tagsInUse           332.954681                       # Average ticks per tags in use ((Tick/Count))
system.cpu.icache.tags.totalRefs           1123657991                       # Total number of references to valid blocks. (Count)
system.cpu.icache.tags.sampledRefs            1052908                       # Sample count of references to valid blocks. (Count)
system.cpu.icache.tags.avgRefs            1067.194846                       # Average number of references to valid blocks. ((Count/Count))
system.cpu.icache.tags.warmupTick               81500                       # The tick when the warmup percentage was hit. (Tick)
system.cpu.icache.tags.occupancies::cpu.inst   332.954681                       # Average occupied blocks per tick, per requestor ((Count/Tick))
system.cpu.icache.tags.avgOccs::cpu.inst     0.650302                       # Average percentage of cache occupancy ((Ratio/Tick))
system.cpu.icache.tags.avgOccs::total        0.650302                       # Average percentage of cache occupancy ((Ratio/Tick))
system.cpu.icache.tags.occupanciesTaskId::1024          350                       # Occupied blocks per task id (Count)
system.cpu.icache.tags.ageTaskId_1024::4          350                       # Occupied blocks per task id, per block age (Count)
system.cpu.icache.tags.ratioOccsTaskId::1024     0.683594                       # Ratio of occupied blocks and all blocks, per task id (Ratio)
system.cpu.icache.tags.tagAccesses         2248368890                       # Number of tag accesses (Count)
system.cpu.icache.tags.dataAccesses        2248368890                       # Number of data accesses (Count)
system.cpu.icache.tags.power_state.pwrStateResidencyTicks::UNDEFINED 3079664187500                       # Cumulative time (in ticks) in various power states (Tick)
system.cpu.mmu.alignFaults                          0                       # Number of MMU faults due to alignment restrictions (Count)
system.cpu.mmu.prefetchFaults                       0                       # Number of MMU faults due to prefetch (Count)
system.cpu.mmu.domainFaults                         0                       # Number of MMU faults due to domain restrictions (Count)
system.cpu.mmu.permsFaults                          0                       # Number of MMU faults due to permissions restrictions (Count)
system.cpu.mmu.dtb.readHits                         0                       # Read hits (Count)
system.cpu.mmu.dtb.readMisses                       0                       # Read misses (Count)
system.cpu.mmu.dtb.writeHits                        0                       # Write hits (Count)
system.cpu.mmu.dtb.writeMisses                      0                       # Write misses (Count)
system.cpu.mmu.dtb.inserts                          0                       # Number of times an entry is inserted into the TLB (Count)
system.cpu.mmu.dtb.flushTlb                         1                       # Number of times a TLB invalidation was requested (Count)
system.cpu.mmu.dtb.flushedEntries                   0                       # Number of entries that have been flushed from TLB (Count)
system.cpu.mmu.dtb.readAccesses                     0                       # Read accesses (Count)
system.cpu.mmu.dtb.writeAccesses                    0                       # Write accesses (Count)
system.cpu.mmu.dtb.hits                             0                       # Total TLB (inst and data) hits (Count)
system.cpu.mmu.dtb.misses                           0                       # Total TLB (inst and data) misses (Count)
system.cpu.mmu.dtb.accesses                         0                       # Total TLB (inst and data) accesses (Count)
system.cpu.mmu.dtb_walker.walks                     0                       # Table walker walks requested (Count)
system.cpu.mmu.dtb_walker.requestOrigin_Requested::Data            0                       # Table walker requests started/completed, data/inst (Count)
system.cpu.mmu.dtb_walker.requestOrigin_Requested::Inst            0                       # Table walker requests started/completed, data/inst (Count)
system.cpu.mmu.dtb_walker.requestOrigin_Requested::total            0                       # Table walker requests started/completed, data/inst (Count)
system.cpu.mmu.dtb_walker.requestOrigin_Completed::Data            0                       # Table walker requests started/completed, data/inst (Count)
system.cpu.mmu.dtb_walker.requestOrigin_Completed::Inst            0                       # Table walker requests started/completed, data/inst (Count)
system.cpu.mmu.dtb_walker.requestOrigin_Completed::total            0                       # Table walker requests started/completed, data/inst (Count)
system.cpu.mmu.dtb_walker.requestOrigin::total            0                       # Table walker requests started/completed, data/inst (Count)
system.cpu.mmu.dtb_walker.power_state.pwrStateResidencyTicks::UNDEFINED 3079664187500                       # Cumulative time (in ticks) in various power states (Tick)
system.cpu.mmu.itb.instHits                         0                       # Inst hits (Count)
system.cpu.mmu.itb.instMisses                       0                       # Inst misses (Count)
system.cpu.mmu.itb.inserts                          0                       # Number of times an entry is inserted into the TLB (Count)
system.cpu.mmu.itb.flushTlb                         1                       # Number of times a TLB invalidation was requested (Count)
system.cpu.mmu.itb.flushedEntries                   0                       # Number of entries that have been flushed from TLB (Count)
system.cpu.mmu.itb.instAccesses                     0                       # Inst accesses (Count)
system.cpu.mmu.itb.hits                             0                       # Total TLB (inst and data) hits (Count)
system.cpu.mmu.itb.misses                           0                       # Total TLB (inst and data) misses (Count)
system.cpu.mmu.itb.accesses                         0                       # Total TLB (inst and data) accesses (Count)
system.cpu.mmu.itb_walker.walks                     0                       # Table walker walks requested (Count)
system.cpu.mmu.itb_walker.requestOrigin_Requested::Data            0                       # Table walker requests started/completed, data/inst (Count)
system.cpu.mmu.itb_walker.requestOrigin_Requested::Inst            0                       # Table walker requests started/completed, data/inst (Count)
system.cpu.mmu.itb_walker.requestOrigin_Requested::total            0                       # Table walker requests started/completed, data/inst (Count)
system.cpu.mmu.itb_walker.requestOrigin_Completed::Data            0                       # Table walker requests started/completed, data/inst (Count)
system.cpu.mmu.itb_walker.requestOrigin_Completed::Inst            0                       # Table walker requests started/completed, data/inst (Count)
system.cpu.mmu.itb_walker.requestOrigin_Completed::total            0                       # Table walker requests started/completed, data/inst (Count)
system.cpu.mmu.itb_walker.requestOrigin::total            0                       # Table walker requests started/completed, data/inst (Count)
system.cpu.mmu.itb_walker.power_state.pwrStateResidencyTicks::UNDEFINED 3079664187500                       # Cumulative time (in ticks) in various power states (Tick)
system.cpu.mmu.l2_shared.instHits                   0                       # Inst hits (Count)
system.cpu.mmu.l2_shared.instMisses                 0                       # Inst misses (Count)
system.cpu.mmu.l2_shared.inserts                    0                       # Number of times an entry is inserted into the TLB (Count)
system.cpu.mmu.l2_shared.flushTlb                   1                       # Number of times a TLB invalidation was requested (Count)
system.cpu.mmu.l2_shared.flushedEntries             0                       # Number of entries that have been flushed from TLB (Count)
system.cpu.mmu.l2_shared.instAccesses               0                       # Inst accesses (Count)
system.cpu.mmu.l2_shared.hits                       0                       # Total TLB (inst and data) hits (Count)
system.cpu.mmu.l2_shared.misses                     0                       # Total TLB (inst and data) misses (Count)
system.cpu.mmu.l2_shared.accesses                   0                       # Total TLB (inst and data) accesses (Count)
system.cpu.mmu.stage2_dtb.readHits                  0                       # Read hits (Count)
system.cpu.mmu.stage2_dtb.readMisses                0                       # Read misses (Count)
system.cpu.mmu.stage2_dtb.writeHits                 0                       # Write hits (Count)
system.cpu.mmu.stage2_dtb.writeMisses               0                       # Write misses (Count)
system.cpu.mmu.stage2_dtb.inserts                   0                       # Number of times an entry is inserted into the TLB (Count)
system.cpu.mmu.stage2_dtb.flushTlb                  1                       # Number of times a TLB invalidation was requested (Count)
system.cpu.mmu.stage2_dtb.flushedEntries            0                       # Number of entries that have been flushed from TLB (Count)
system.cpu.mmu.stage2_dtb.readAccesses              0                       # Read accesses (Count)
system.cpu.mmu.stage2_dtb.writeAccesses             0                       # Write accesses (Count)
system.cpu.mmu.stage2_dtb.hits                      0                       # Total TLB (inst and data) hits (Count)
system.cpu.mmu.stage2_dtb.misses                    0                       # Total TLB (inst and data) misses (Count)
system.cpu.mmu.stage2_dtb.accesses                  0                       # Total TLB (inst and data) accesses (Count)
system.cpu.mmu.stage2_dtb_walker.walks              0                       # Table walker walks requested (Count)
system.cpu.mmu.stage2_dtb_walker.requestOrigin_Requested::Data            0                       # Table walker requests started/completed, data/inst (Count)
system.cpu.mmu.stage2_dtb_walker.requestOrigin_Requested::Inst            0                       # Table walker requests started/completed, data/inst (Count)
system.cpu.mmu.stage2_dtb_walker.requestOrigin_Requested::total            0                       # Table walker requests started/completed, data/inst (Count)
system.cpu.mmu.stage2_dtb_walker.requestOrigin_Completed::Data            0                       # Table walker requests started/completed, data/inst (Count)
system.cpu.mmu.stage2_dtb_walker.requestOrigin_Completed::Inst            0                       # Table walker requests started/completed, data/inst (Count)
system.cpu.mmu.stage2_dtb_walker.requestOrigin_Completed::total            0                       # Table walker requests started/completed, data/inst (Count)
system.cpu.mmu.stage2_dtb_walker.requestOrigin::total            0                       # Table walker requests started/completed, data/inst (Count)
system.cpu.mmu.stage2_dtb_walker.power_state.pwrStateResidencyTicks::UNDEFINED 3079664187500                       # Cumulative time (in ticks) in various power states (Tick)
system.cpu.mmu.stage2_itb.instHits                  0                       # Inst hits (Count)
system.cpu.mmu.stage2_itb.instMisses                0                       # Inst misses (Count)
system.cpu.mmu.stage2_itb.inserts                   0                       # Number of times an entry is inserted into the TLB (Count)
system.cpu.mmu.stage2_itb.flushTlb                  1                       # Number of times a TLB invalidation was requested (Count)
system.cpu.mmu.stage2_itb.flushedEntries            0                       # Number of entries that have been flushed from TLB (Count)
system.cpu.mmu.stage2_itb.instAccesses              0                       # Inst accesses (Count)
system.cpu.mmu.stage2_itb.hits                      0                       # Total TLB (inst and data) hits (Count)
system.cpu.mmu.stage2_itb.misses                    0                       # Total TLB (inst and data) misses (Count)
system.cpu.mmu.stage2_itb.accesses                  0                       # Total TLB (inst and data) accesses (Count)
system.cpu.mmu.stage2_itb_walker.walks              0                       # Table walker walks requested (Count)
system.cpu.mmu.stage2_itb_walker.requestOrigin_Requested::Data            0                       # Table walker requests started/completed, data/inst (Count)
system.cpu.mmu.stage2_itb_walker.requestOrigin_Requested::Inst            0                       # Table walker requests started/completed, data/inst (Count)
system.cpu.mmu.stage2_itb_walker.requestOrigin_Requested::total            0                       # Table walker requests started/completed, data/inst (Count)
system.cpu.mmu.stage2_itb_walker.requestOrigin_Completed::Data            0                       # Table walker requests started/completed, data/inst (Count)
system.cpu.mmu.stage2_itb_walker.requestOrigin_Completed::Inst            0                       # Table walker requests started/completed, data/inst (Count)
system.cpu.mmu.stage2_itb_walker.requestOrigin_Completed::total            0                       # Table walker requests started/completed, data/inst (Count)
system.cpu.mmu.stage2_itb_walker.requestOrigin::total            0                       # Table walker requests started/completed, data/inst (Count)
system.cpu.mmu.stage2_itb_walker.power_state.pwrStateResidencyTicks::UNDEFINED 3079664187500                       # Cumulative time (in ticks) in various power states (Tick)
system.cpu.power_state.pwrStateResidencyTicks::ON 3079664187500                       # Cumulative time (in ticks) in various power states (Tick)
system.cpu.thread_0.numInsts                        0                       # Number of Instructions committed (Count)
system.cpu.thread_0.numOps                          0                       # Number of Ops committed (Count)
system.cpu.thread_0.numMemRefs                      0                       # Number of Memory References (Count)
system.cpu.workload.numSyscalls                   423                       # Number of system calls (Count)
system.l2bus.transDist::ReadResp             33313249                       # Transaction distribution (Count)
system.l2bus.transDist::WritebackDirty       14358262                       # Transaction distribution (Count)
system.l2bus.transDist::CleanEvict           39738855                       # Transaction distribution (Count)
system.l2bus.transDist::HardPFReq             5026487                       # Transaction distribution (Count)
system.l2bus.transDist::ReadExReq              937534                       # Transaction distribution (Count)
system.l2bus.transDist::ReadExResp             937534                       # Transaction distribution (Count)
system.l2bus.transDist::ReadSharedReq        33313249                       # Transaction distribution (Count)
system.l2bus.pktCount_system.cpu.icache.mem_side_port::system.l2cache.cpu_side_port      3158374                       # Packet count per connected requestor and responder (Count)
system.l2bus.pktCount_system.cpu.dcache.mem_side_port::system.l2cache.cpu_side_port     99593113                       # Packet count per connected requestor and responder (Count)
system.l2bus.pktCount::total                102751487                       # Packet count per connected requestor and responder (Count)
system.l2bus.pktSize_system.cpu.icache.mem_side_port::system.l2cache.cpu_side_port     67386112                       # Cumulative packet size per connected requestor and responder (Byte)
system.l2bus.pktSize_system.cpu.dcache.mem_side_port::system.l2cache.cpu_side_port   2659039040                       # Cumulative packet size per connected requestor and responder (Byte)
system.l2bus.pktSize::total                2726425152                       # Cumulative packet size per connected requestor and responder (Byte)
system.l2bus.snoops                          24873683                       # Total snoops (Count)
system.l2bus.snoopTraffic                   384553728                       # Total snoop traffic (Byte)
system.l2bus.snoopFanout::samples            59124466                       # Request fanout histogram (Count)
system.l2bus.snoopFanout::mean               0.000808                       # Request fanout histogram (Count)
system.l2bus.snoopFanout::stdev              0.028459                       # Request fanout histogram (Count)
system.l2bus.snoopFanout::underflows                0      0.00%      0.00% # Request fanout histogram (Count)
system.l2bus.snoopFanout::0                  59076792     99.92%     99.92% # Request fanout histogram (Count)
system.l2bus.snoopFanout::1                     47590      0.08%    100.00% # Request fanout histogram (Count)
system.l2bus.snoopFanout::2                        84      0.00%    100.00% # Request fanout histogram (Count)
system.l2bus.snoopFanout::overflows                 0      0.00%    100.00% # Request fanout histogram (Count)
system.l2bus.snoopFanout::min_value                 0                       # Request fanout histogram (Count)
system.l2bus.snoopFanout::max_value                 2                       # Request fanout histogram (Count)
system.l2bus.snoopFanout::total              59124466                       # Request fanout histogram (Count)
system.l2bus.power_state.pwrStateResidencyTicks::UNDEFINED 3079664187500                       # Cumulative time (in ticks) in various power states (Tick)
system.l2bus.reqLayer0.occupancy          42599962000                       # Layer occupancy (ticks) (Tick)
system.l2bus.reqLayer0.utilization                0.0                       # Layer utilization (Ratio)
system.l2bus.respLayer0.occupancy          1579362000                       # Layer occupancy (ticks) (Tick)
system.l2bus.respLayer0.utilization               0.0                       # Layer utilization (Ratio)
system.l2bus.respLayer1.occupancy         49796812500                       # Layer occupancy (ticks) (Tick)
system.l2bus.respLayer1.utilization               0.0                       # Layer utilization (Ratio)
system.l2bus.snoop_filter.totRequests        68500704                       # Total number of requests made to the snoop filter. (Count)
system.l2bus.snoop_filter.hitSingleRequests     34249921                       # Number of requests hitting in the snoop filter with a single holder of the requested data. (Count)
system.l2bus.snoop_filter.hitMultiRequests        45457                       # Number of requests hitting in the snoop filter with multiple (>1) holders of the requested data. (Count)
system.l2bus.snoop_filter.totSnoops              2217                       # Total number of snoops made to the snoop filter. (Count)
system.l2bus.snoop_filter.hitSingleSnoops         2133                       # Number of snoops hitting in the snoop filter with a single holder of the requested data. (Count)
system.l2bus.snoop_filter.hitMultiSnoops           84                       # Number of snoops hitting in the snoop filter with multiple (>1) holders of the requested data. (Count)
system.l2cache.demandHits::cpu.inst           1052511                       # number of demand (read+write) hits (Count)
system.l2cache.demandHits::cpu.data          16967812                       # number of demand (read+write) hits (Count)
system.l2cache.demandHits::total             18020323                       # number of demand (read+write) hits (Count)
system.l2cache.overallHits::cpu.inst          1052511                       # number of overall hits (Count)
system.l2cache.overallHits::cpu.data         16967812                       # number of overall hits (Count)
system.l2cache.overallHits::total            18020323                       # number of overall hits (Count)
system.l2cache.demandMisses::cpu.inst             397                       # number of demand (read+write) misses (Count)
system.l2cache.demandMisses::cpu.data        16230063                       # number of demand (read+write) misses (Count)
system.l2cache.demandMisses::total           16230460                       # number of demand (read+write) misses (Count)
system.l2cache.overallMisses::cpu.inst            397                       # number of overall misses (Count)
system.l2cache.overallMisses::cpu.data       16230063                       # number of overall misses (Count)
system.l2cache.overallMisses::total          16230460                       # number of overall misses (Count)
system.l2cache.demandMissLatency::cpu.inst     27923500                       # number of demand (read+write) miss ticks (Tick)
system.l2cache.demandMissLatency::cpu.data 1346466692000                       # number of demand (read+write) miss ticks (Tick)
system.l2cache.demandMissLatency::total  1346494615500                       # number of demand (read+write) miss ticks (Tick)
system.l2cache.overallMissLatency::cpu.inst     27923500                       # number of overall miss ticks (Tick)
system.l2cache.overallMissLatency::cpu.data 1346466692000                       # number of overall miss ticks (Tick)
system.l2cache.overallMissLatency::total 1346494615500                       # number of overall miss ticks (Tick)
system.l2cache.demandAccesses::cpu.inst       1052908                       # number of demand (read+write) accesses (Count)
system.l2cache.demandAccesses::cpu.data      33197875                       # number of demand (read+write) accesses (Count)
system.l2cache.demandAccesses::total         34250783                       # number of demand (read+write) accesses (Count)
system.l2cache.overallAccesses::cpu.inst      1052908                       # number of overall (read+write) accesses (Count)
system.l2cache.overallAccesses::cpu.data     33197875                       # number of overall (read+write) accesses (Count)
system.l2cache.overallAccesses::total        34250783                       # number of overall (read+write) accesses (Count)
system.l2cache.demandMissRate::cpu.inst      0.000377                       # miss rate for demand accesses (Ratio)
system.l2cache.demandMissRate::cpu.data      0.488889                       # miss rate for demand accesses (Ratio)
system.l2cache.demandMissRate::total         0.473871                       # miss rate for demand accesses (Ratio)
system.l2cache.overallMissRate::cpu.inst     0.000377                       # miss rate for overall accesses (Ratio)
system.l2cache.overallMissRate::cpu.data     0.488889                       # miss rate for overall accesses (Ratio)
system.l2cache.overallMissRate::total        0.473871                       # miss rate for overall accesses (Ratio)
system.l2cache.demandAvgMissLatency::cpu.inst 70336.272040                       # average overall miss latency in ticks ((Tick/Count))
system.l2cache.demandAvgMissLatency::cpu.data 82961.273286                       # average overall miss latency in ticks ((Tick/Count))
system.l2cache.demandAvgMissLatency::total 82960.964477                       # average overall miss latency in ticks ((Tick/Count))
system.l2cache.overallAvgMissLatency::cpu.inst 70336.272040                       # average overall miss latency ((Tick/Count))
system.l2cache.overallAvgMissLatency::cpu.data 82961.273286                       # average overall miss latency ((Tick/Count))
system.l2cache.overallAvgMissLatency::total 82960.964477                       # average overall miss latency ((Tick/Count))
system.l2cache.blockedCycles::no_mshrs              0                       # number of cycles access was blocked (Cycle)
system.l2cache.blockedCycles::no_targets            0                       # number of cycles access was blocked (Cycle)
system.l2cache.blockedCauses::no_mshrs              0                       # number of times access was blocked (Count)
system.l2cache.blockedCauses::no_targets            0                       # number of times access was blocked (Count)
system.l2cache.avgBlocked::no_mshrs               nan                       # average number of cycles each access was blocked ((Cycle/Count))
system.l2cache.avgBlocked::no_targets             nan                       # average number of cycles each access was blocked ((Cycle/Count))
system.l2cache.writebacks::writebacks         6008652                       # number of writebacks (Count)
system.l2cache.writebacks::total              6008652                       # number of writebacks (Count)
system.l2cache.demandMshrHits::cpu.data            14                       # number of demand (read+write) MSHR hits (Count)
system.l2cache.demandMshrHits::total               14                       # number of demand (read+write) MSHR hits (Count)
system.l2cache.overallMshrHits::cpu.data           14                       # number of overall MSHR hits (Count)
system.l2cache.overallMshrHits::total              14                       # number of overall MSHR hits (Count)
system.l2cache.demandMshrMisses::cpu.inst          397                       # number of demand (read+write) MSHR misses (Count)
system.l2cache.demandMshrMisses::cpu.data     16230049                       # number of demand (read+write) MSHR misses (Count)
system.l2cache.demandMshrMisses::total       16230446                       # number of demand (read+write) MSHR misses (Count)
system.l2cache.overallMshrMisses::cpu.inst          397                       # number of overall MSHR misses (Count)
system.l2cache.overallMshrMisses::cpu.data     16230049                       # number of overall MSHR misses (Count)
system.l2cache.overallMshrMisses::l2cache.prefetcher      3619843                       # number of overall MSHR misses (Count)
system.l2cache.overallMshrMisses::total      19850289                       # number of overall MSHR misses (Count)
system.l2cache.demandMshrMissLatency::cpu.inst     23953500                       # number of demand (read+write) MSHR miss ticks (Tick)
system.l2cache.demandMshrMissLatency::cpu.data 1184165828000                       # number of demand (read+write) MSHR miss ticks (Tick)
system.l2cache.demandMshrMissLatency::total 1184189781500                       # number of demand (read+write) MSHR miss ticks (Tick)
system.l2cache.overallMshrMissLatency::cpu.inst     23953500                       # number of overall MSHR miss ticks (Tick)
system.l2cache.overallMshrMissLatency::cpu.data 1184165828000                       # number of overall MSHR miss ticks (Tick)
system.l2cache.overallMshrMissLatency::l2cache.prefetcher 225584719513                       # number of overall MSHR miss ticks (Tick)
system.l2cache.overallMshrMissLatency::total 1409774501013                       # number of overall MSHR miss ticks (Tick)
system.l2cache.demandMshrMissRate::cpu.inst     0.000377                       # mshr miss ratio for demand accesses (Ratio)
system.l2cache.demandMshrMissRate::cpu.data     0.488888                       # mshr miss ratio for demand accesses (Ratio)
system.l2cache.demandMshrMissRate::total     0.473871                       # mshr miss ratio for demand accesses (Ratio)
system.l2cache.overallMshrMissRate::cpu.inst     0.000377                       # mshr miss ratio for overall accesses (Ratio)
system.l2cache.overallMshrMissRate::cpu.data     0.488888                       # mshr miss ratio for overall accesses (Ratio)
system.l2cache.overallMshrMissRate::l2cache.prefetcher          inf                       # mshr miss ratio for overall accesses (Ratio)
system.l2cache.overallMshrMissRate::total     0.579557                       # mshr miss ratio for overall accesses (Ratio)
system.l2cache.demandAvgMshrMissLatency::cpu.inst 60336.272040                       # average overall mshr miss latency ((Tick/Count))
system.l2cache.demandAvgMshrMissLatency::cpu.data 72961.321805                       # average overall mshr miss latency ((Tick/Count))
system.l2cache.demandAvgMshrMissLatency::total 72961.012994                       # average overall mshr miss latency ((Tick/Count))
system.l2cache.overallAvgMshrMissLatency::cpu.inst 60336.272040                       # average overall mshr miss latency ((Tick/Count))
system.l2cache.overallAvgMshrMissLatency::cpu.data 72961.321805                       # average overall mshr miss latency ((Tick/Count))
system.l2cache.overallAvgMshrMissLatency::l2cache.prefetcher 62318.923642                       # average overall mshr miss latency ((Tick/Count))
system.l2cache.overallAvgMshrMissLatency::total 71020.351442                       # average overall mshr miss latency ((Tick/Count))
system.l2cache.replacements                  19847196                       # number of replacements (Count)
system.l2cache.CleanEvict.mshrMisses::writebacks          357                       # number of CleanEvict MSHR misses (Count)
system.l2cache.CleanEvict.mshrMisses::total          357                       # number of CleanEvict MSHR misses (Count)
system.l2cache.CleanEvict.mshrMissRate::writebacks          inf                       # mshr miss rate for CleanEvict accesses (Ratio)
system.l2cache.CleanEvict.mshrMissRate::total          inf                       # mshr miss rate for CleanEvict accesses (Ratio)
system.l2cache.HardPFReq.mshrMisses::l2cache.prefetcher      3619843                       # number of HardPFReq MSHR misses (Count)
system.l2cache.HardPFReq.mshrMisses::total      3619843                       # number of HardPFReq MSHR misses (Count)
system.l2cache.HardPFReq.mshrMissLatency::l2cache.prefetcher 225584719513                       # number of HardPFReq MSHR miss ticks (Tick)
system.l2cache.HardPFReq.mshrMissLatency::total 225584719513                       # number of HardPFReq MSHR miss ticks (Tick)
system.l2cache.HardPFReq.mshrMissRate::l2cache.prefetcher          inf                       # mshr miss rate for HardPFReq accesses (Ratio)
system.l2cache.HardPFReq.mshrMissRate::total          inf                       # mshr miss rate for HardPFReq accesses (Ratio)
system.l2cache.HardPFReq.avgMshrMissLatency::l2cache.prefetcher 62318.923642                       # average HardPFReq mshr miss latency ((Tick/Count))
system.l2cache.HardPFReq.avgMshrMissLatency::total 62318.923642                       # average HardPFReq mshr miss latency ((Tick/Count))
system.l2cache.ReadExReq.hits::cpu.data        691871                       # number of ReadExReq hits (Count)
system.l2cache.ReadExReq.hits::total           691871                       # number of ReadExReq hits (Count)
system.l2cache.ReadExReq.misses::cpu.data       245663                       # number of ReadExReq misses (Count)
system.l2cache.ReadExReq.misses::total         245663                       # number of ReadExReq misses (Count)
system.l2cache.ReadExReq.missLatency::cpu.data  21544340000                       # number of ReadExReq miss ticks (Tick)
system.l2cache.ReadExReq.missLatency::total  21544340000                       # number of ReadExReq miss ticks (Tick)
system.l2cache.ReadExReq.accesses::cpu.data       937534                       # number of ReadExReq accesses(hits+misses) (Count)
system.l2cache.ReadExReq.accesses::total       937534                       # number of ReadExReq accesses(hits+misses) (Count)
system.l2cache.ReadExReq.missRate::cpu.data     0.262031                       # miss rate for ReadExReq accesses (Ratio)
system.l2cache.ReadExReq.missRate::total     0.262031                       # miss rate for ReadExReq accesses (Ratio)
system.l2cache.ReadExReq.avgMissLatency::cpu.data 87698.758055                       # average ReadExReq miss latency ((Tick/Count))
system.l2cache.ReadExReq.avgMissLatency::total 87698.758055                       # average ReadExReq miss latency ((Tick/Count))
system.l2cache.ReadExReq.mshrMisses::cpu.data       245663                       # number of ReadExReq MSHR misses (Count)
system.l2cache.ReadExReq.mshrMisses::total       245663                       # number of ReadExReq MSHR misses (Count)
system.l2cache.ReadExReq.mshrMissLatency::cpu.data  19087710000                       # number of ReadExReq MSHR miss ticks (Tick)
system.l2cache.ReadExReq.mshrMissLatency::total  19087710000                       # number of ReadExReq MSHR miss ticks (Tick)
system.l2cache.ReadExReq.mshrMissRate::cpu.data     0.262031                       # mshr miss rate for ReadExReq accesses (Ratio)
system.l2cache.ReadExReq.mshrMissRate::total     0.262031                       # mshr miss rate for ReadExReq accesses (Ratio)
system.l2cache.ReadExReq.avgMshrMissLatency::cpu.data 77698.758055                       # average ReadExReq mshr miss latency ((Tick/Count))
system.l2cache.ReadExReq.avgMshrMissLatency::total 77698.758055                       # average ReadExReq mshr miss latency ((Tick/Count))
system.l2cache.ReadSharedReq.hits::cpu.inst      1052511                       # number of ReadSharedReq hits (Count)
system.l2cache.ReadSharedReq.hits::cpu.data     16275941                       # number of ReadSharedReq hits (Count)
system.l2cache.ReadSharedReq.hits::total     17328452                       # number of ReadSharedReq hits (Count)
system.l2cache.ReadSharedReq.misses::cpu.inst          397                       # number of ReadSharedReq misses (Count)
system.l2cache.ReadSharedReq.misses::cpu.data     15984400                       # number of ReadSharedReq misses (Count)
[...]
system.mem_ctrl.dram.perBankRdBursts::7        620626                       # Per bank write bursts (Count)
system.mem_ctrl.dram.perBankRdBursts::8        624497                       # Per bank write bursts (Count)
system.mem_ctrl.dram.perBankRdBursts::9        642456                       # Per bank write bursts (Count)
system.mem_ctrl.dram.perBankRdBursts::10       621691                       # Per bank write bursts (Count)
system.mem_ctrl.dram.perBankRdBursts::11       626979                       # Per bank write bursts (Count)
system.mem_ctrl.dram.perBankRdBursts::12       596096                       # Per bank write bursts (Count)
system.mem_ctrl.dram.perBankRdBursts::13       616926                       # Per bank write bursts (Count)
system.mem_ctrl.dram.perBankRdBursts::14       613907                       # Per bank write bursts (Count)
system.mem_ctrl.dram.perBankRdBursts::15       615502                       # Per bank write bursts (Count)
system.mem_ctrl.dram.perBankRdBursts::16       606722                       # Per bank write bursts (Count)
system.mem_ctrl.dram.perBankRdBursts::17       616837                       # Per bank write bursts (Count)
system.mem_ctrl.dram.perBankRdBursts::18       578022                       # Per bank write bursts (Count)
system.mem_ctrl.dram.perBankRdBursts::19       599844                       # Per bank write bursts (Count)
system.mem_ctrl.dram.perBankRdBursts::20       587890                       # Per bank write bursts (Count)
system.mem_ctrl.dram.perBankRdBursts::21       610734                       # Per bank write bursts (Count)
system.mem_ctrl.dram.perBankRdBursts::22       606843                       # Per bank write bursts (Count)
system.mem_ctrl.dram.perBankRdBursts::23       626074                       # Per bank write bursts (Count)
system.mem_ctrl.dram.perBankRdBursts::24       626385                       # Per bank write bursts (Count)
system.mem_ctrl.dram.perBankRdBursts::25       612697                       # Per bank write bursts (Count)
system.mem_ctrl.dram.perBankRdBursts::26       615255                       # Per bank write bursts (Count)
system.mem_ctrl.dram.perBankRdBursts::27       616286                       # Per bank write bursts (Count)
system.mem_ctrl.dram.perBankRdBursts::28       626122                       # Per bank write bursts (Count)
system.mem_ctrl.dram.perBankRdBursts::29       623415                       # Per bank write bursts (Count)
system.mem_ctrl.dram.perBankRdBursts::30       644687                       # Per bank write bursts (Count)
system.mem_ctrl.dram.perBankRdBursts::31       608438                       # Per bank write bursts (Count)
system.mem_ctrl.dram.perBankWrBursts::0        192074                       # Per bank write bursts (Count)
system.mem_ctrl.dram.perBankWrBursts::1        185268                       # Per bank write bursts (Count)
system.mem_ctrl.dram.perBankWrBursts::2        193691                       # Per bank write bursts (Count)
system.mem_ctrl.dram.perBankWrBursts::3        183904                       # Per bank write bursts (Count)
system.mem_ctrl.dram.perBankWrBursts::4        190480                       # Per bank write bursts (Count)
system.mem_ctrl.dram.perBankWrBursts::5        184110                       # Per bank write bursts (Count)
system.mem_ctrl.dram.perBankWrBursts::6        193030                       # Per bank write bursts (Count)
system.mem_ctrl.dram.perBankWrBursts::7        182849                       # Per bank write bursts (Count)
system.mem_ctrl.dram.perBankWrBursts::8        190400                       # Per bank write bursts (Count)
system.mem_ctrl.dram.perBankWrBursts::9        192119                       # Per bank write bursts (Count)
system.mem_ctrl.dram.perBankWrBursts::10       184118                       # Per bank write bursts (Count)
system.mem_ctrl.dram.perBankWrBursts::11       191080                       # Per bank write bursts (Count)
system.mem_ctrl.dram.perBankWrBursts::12       183997                       # Per bank write bursts (Count)
system.mem_ctrl.dram.perBankWrBursts::13       190577                       # Per bank write bursts (Count)
system.mem_ctrl.dram.perBankWrBursts::14       188972                       # Per bank write bursts (Count)
system.mem_ctrl.dram.perBankWrBursts::15       190085                       # Per bank write bursts (Count)
system.mem_ctrl.dram.perBankWrBursts::16       187043                       # Per bank write bursts (Count)
system.mem_ctrl.dram.perBankWrBursts::17       190266                       # Per bank write bursts (Count)
system.mem_ctrl.dram.perBankWrBursts::18       175086                       # Per bank write bursts (Count)
system.mem_ctrl.dram.perBankWrBursts::19       191640                       # Per bank write bursts (Count)
system.mem_ctrl.dram.perBankWrBursts::20       173609                       # Per bank write bursts (Count)
system.mem_ctrl.dram.perBankWrBursts::21       192493                       # Per bank write bursts (Count)
system.mem_ctrl.dram.perBankWrBursts::22       184513                       # Per bank write bursts (Count)
system.mem_ctrl.dram.perBankWrBursts::23       191827                       # Per bank write bursts (Count)
system.mem_ctrl.dram.perBankWrBursts::24       183973                       # Per bank write bursts (Count)
system.mem_ctrl.dram.perBankWrBursts::25       192081                       # Per bank write bursts (Count)
system.mem_ctrl.dram.perBankWrBursts::26       184294                       # Per bank write bursts (Count)
system.mem_ctrl.dram.perBankWrBursts::27       192858                       # Per bank write bursts (Count)
system.mem_ctrl.dram.perBankWrBursts::28       192407                       # Per bank write bursts (Count)
system.mem_ctrl.dram.perBankWrBursts::29       183475                       # Per bank write bursts (Count)
system.mem_ctrl.dram.perBankWrBursts::30       190262                       # Per bank write bursts (Count)
system.mem_ctrl.dram.perBankWrBursts::31       184048                       # Per bank write bursts (Count)
system.mem_ctrl.dram.totQLat             392779103175                       # Total ticks spent queuing (Tick)
system.mem_ctrl.dram.totBusLat            66033396072                       # Total ticks spent in databus transfers (Tick)
system.mem_ctrl.dram.totMemAccLat        739434614607                       # Total ticks spent from burst creation until serviced by the DRAM (Tick)
system.mem_ctrl.dram.avgQLat                 19819.36                       # Average queueing delay per DRAM burst ((Tick/Count))
system.mem_ctrl.dram.avgBusLat                3332.00                       # Average bus latency per DRAM burst ((Tick/Count))
system.mem_ctrl.dram.avgMemAccLat            37311.36                       # Average memory access latency per DRAM burst ((Tick/Count))
system.mem_ctrl.dram.readRowHits              8878574                       # Number of row buffer hits during reads (Count)
system.mem_ctrl.dram.writeRowHits             4387357                       # Number of row buffer hits during writes (Count)
system.mem_ctrl.dram.readRowHitRate             44.80                       # Row buffer hit rate for reads (Ratio)
system.mem_ctrl.dram.writeRowHitRate            73.04                       # Row buffer hit rate for writes (Ratio)
system.mem_ctrl.dram.bytesPerActivate::samples     12558632                       # Bytes accessed per row activation (Byte)
system.mem_ctrl.dram.bytesPerActivate::mean   131.604138                       # Bytes accessed per row activation (Byte)
system.mem_ctrl.dram.bytesPerActivate::gmean    86.581784                       # Bytes accessed per row activation (Byte)
system.mem_ctrl.dram.bytesPerActivate::stdev   204.154193                       # Bytes accessed per row activation (Byte)
system.mem_ctrl.dram.bytesPerActivate::0-127      9921224     79.00%     79.00% # Bytes accessed per row activation (Byte)
system.mem_ctrl.dram.bytesPerActivate::128-255      1457660     11.61%     90.61% # Bytes accessed per row activation (Byte)
system.mem_ctrl.dram.bytesPerActivate::256-383       270708      2.16%     92.76% # Bytes accessed per row activation (Byte)
system.mem_ctrl.dram.bytesPerActivate::384-511       152940      1.22%     93.98% # Bytes accessed per row activation (Byte)
system.mem_ctrl.dram.bytesPerActivate::512-639       114389      0.91%     94.89% # Bytes accessed per row activation (Byte)
system.mem_ctrl.dram.bytesPerActivate::640-767        80132      0.64%     95.53% # Bytes accessed per row activation (Byte)
system.mem_ctrl.dram.bytesPerActivate::768-895        64522      0.51%     96.04% # Bytes accessed per row activation (Byte)
system.mem_ctrl.dram.bytesPerActivate::896-1023        56148      0.45%     96.49% # Bytes accessed per row activation (Byte)
system.mem_ctrl.dram.bytesPerActivate::1024-1151       440909      3.51%    100.00% # Bytes accessed per row activation (Byte)
system.mem_ctrl.dram.bytesPerActivate::total     12558632                       # Bytes accessed per row activation (Byte)
system.mem_ctrl.dram.bytesRead             1268348544                       # Total bytes read (Byte)
system.mem_ctrl.dram.bytesWritten           384424256                       # Total bytes written (Byte)
system.mem_ctrl.dram.avgRdBW               411.846379                       # Average DRAM read bandwidth in MiBytes/s ((Byte/Second))
system.mem_ctrl.dram.avgWrBW               124.826680                       # Average DRAM write bandwidth in MiBytes/s ((Byte/Second))
system.mem_ctrl.dram.peakBW                  19207.00                       # Theoretical peak bandwidth in MiByte/s ((Byte/Second))
system.mem_ctrl.dram.busUtil                     2.79                       # Data bus utilization in percentage (Ratio)
system.mem_ctrl.dram.busUtilRead                 2.14                       # Data bus utilization in percentage for reads (Ratio)
system.mem_ctrl.dram.busUtilWrite                0.65                       # Data bus utilization in percentage for writes (Ratio)
system.mem_ctrl.dram.pageHitRate                51.37                       # Row buffer hit rate, read and write combined (Ratio)
system.mem_ctrl.dram.power_state.pwrStateResidencyTicks::UNDEFINED 3079664187500                       # Cumulative time (in ticks) in various power states (Tick)
system.mem_ctrl.dram.rank0.actEnergy     19676203249.245193                       # Energy for activate commands per rank (pJ) (Joule)
system.mem_ctrl.dram.rank0.preEnergy     26159243375.502514                       # Energy for precharge commands per rank (pJ) (Joule)
system.mem_ctrl.dram.rank0.readEnergy    42112360874.980011                       # Energy for read commands per rank (pJ) (Joule)
system.mem_ctrl.dram.rank0.writeEnergy   11338457841.985401                       # Energy for write commands per rank (pJ) (Joule)
system.mem_ctrl.dram.rank0.refreshEnergy 547980578927.446228                       # Energy for refresh commands per rank (pJ) (Joule)
system.mem_ctrl.dram.rank0.actBackEnergy 1943813167399.032227                       # Energy for active background per rank (pJ) (Joule)
system.mem_ctrl.dram.rank0.preBackEnergy 516853421695.182739                       # Energy for precharge background per rank (pJ) (Joule)
system.mem_ctrl.dram.rank0.actPowerDownEnergy            0                       # Energy for active power-down per rank (pJ) (Joule)
system.mem_ctrl.dram.rank0.prePowerDownEnergy            0                       # Energy for precharge power-down per rank (pJ) (Joule)
system.mem_ctrl.dram.rank0.selfRefreshEnergy            0                       # Energy for self refresh per rank (pJ) (Joule)
system.mem_ctrl.dram.rank0.totalEnergy   3107933433366.470703                       # Total energy per rank (pJ) (Joule)
system.mem_ctrl.dram.rank0.averagePower   1009.179327                       # Core power per rank (mW) (Watt)
system.mem_ctrl.dram.rank0.totalIdleTime            0                       # Total Idle time Per DRAM Rank (Tick)
system.mem_ctrl.dram.rank0.pwrStateTime::IDLE 781038548718                       # Time in different power states (Tick)
system.mem_ctrl.dram.rank0.pwrStateTime::REF 138441100000                       # Time in different power states (Tick)
system.mem_ctrl.dram.rank0.pwrStateTime::SREF            0                       # Time in different power states (Tick)
system.mem_ctrl.dram.rank0.pwrStateTime::PRE_PDN            0                       # Time in different power states (Tick)
system.mem_ctrl.dram.rank0.pwrStateTime::ACT 2160184538782                       # Time in different power states (Tick)
system.mem_ctrl.dram.rank0.pwrStateTime::ACT_PDN            0                       # Time in different power states (Tick)
system.mem_ctrl.dram.rank1.actEnergy     19491092843.037582                       # Energy for activate commands per rank (pJ) (Joule)
system.mem_ctrl.dram.rank1.preEnergy     25913124878.297237                       # Energy for precharge commands per rank (pJ) (Joule)
system.mem_ctrl.dram.rank1.readEnergy    41248198326.319237                       # Energy for read commands per rank (pJ) (Joule)
system.mem_ctrl.dram.rank1.writeEnergy   11237418194.017366                       # Energy for write commands per rank (pJ) (Joule)
system.mem_ctrl.dram.rank1.refreshEnergy 547980578927.446228                       # Energy for refresh commands per rank (pJ) (Joule)
system.mem_ctrl.dram.rank1.actBackEnergy 1940881149775.334717                       # Energy for active background per rank (pJ) (Joule)
system.mem_ctrl.dram.rank1.preBackEnergy 519106271394.667786                       # Energy for precharge background per rank (pJ) (Joule)
system.mem_ctrl.dram.rank1.actPowerDownEnergy            0                       # Energy for active power-down per rank (pJ) (Joule)
system.mem_ctrl.dram.rank1.prePowerDownEnergy            0                       # Energy for precharge power-down per rank (pJ) (Joule)
system.mem_ctrl.dram.rank1.selfRefreshEnergy            0                       # Energy for self refresh per rank (pJ) (Joule)
system.mem_ctrl.dram.rank1.totalEnergy   3105857834342.198730                       # Total energy per rank (pJ) (Joule)
system.mem_ctrl.dram.rank1.averagePower   1008.505358                       # Core power per rank (mW) (Watt)
system.mem_ctrl.dram.rank1.totalIdleTime            0                       # Total Idle time Per DRAM Rank (Tick)
system.mem_ctrl.dram.rank1.pwrStateTime::IDLE 784598996873                       # Time in different power states (Tick)
system.mem_ctrl.dram.rank1.pwrStateTime::REF 138441100000                       # Time in different power states (Tick)
system.mem_ctrl.dram.rank1.pwrStateTime::SREF            0                       # Time in different power states (Tick)
system.mem_ctrl.dram.rank1.pwrStateTime::PRE_PDN            0                       # Time in different power states (Tick)
system.mem_ctrl.dram.rank1.pwrStateTime::ACT 2156624090627                       # Time in different power states (Tick)
system.mem_ctrl.dram.rank1.pwrStateTime::ACT_PDN            0                       # Time in different power states (Tick)
system.mem_ctrl.power_state.pwrStateResidencyTicks::UNDEFINED 3079664187500                       # Cumulative time (in ticks) in various power states (Tick)
system.membus.transDist::ReadResp            19604626                       # Transaction distribution (Count)
system.membus.transDist::WritebackDirty       6008652                       # Transaction distribution (Count)
system.membus.transDist::CleanEvict          13836684                       # Transaction distribution (Count)
system.membus.transDist::ReadExReq             245663                       # Transaction distribution (Count)
system.membus.transDist::ReadExResp            245663                       # Transaction distribution (Count)
system.membus.transDist::ReadSharedReq       19604626                       # Transaction distribution (Count)
system.membus.pktCount_system.l2cache.mem_side_port::system.mem_ctrl.port     59545914                       # Packet count per connected requestor and responder (Count)
system.membus.pktCount::total                59545914                       # Packet count per connected requestor and responder (Count)
system.membus.pktSize_system.l2cache.mem_side_port::system.mem_ctrl.port   1654972224                       # Cumulative packet size per connected requestor and responder (Byte)
system.membus.pktSize::total               1654972224                       # Cumulative packet size per connected requestor and responder (Byte)
system.membus.snoops                                0                       # Total snoops (Count)
system.membus.snoopTraffic                          0                       # Total snoop traffic (Byte)
system.membus.snoopFanout::samples           19850289                       # Request fanout histogram (Count)
system.membus.snoopFanout::mean                     0                       # Request fanout histogram (Count)
system.membus.snoopFanout::stdev                    0                       # Request fanout histogram (Count)
system.membus.snoopFanout::underflows               0      0.00%      0.00% # Request fanout histogram (Count)
system.membus.snoopFanout::0                 19850289    100.00%    100.00% # Request fanout histogram (Count)
system.membus.snoopFanout::1                        0      0.00%    100.00% # Request fanout histogram (Count)
system.membus.snoopFanout::overflows                0      0.00%    100.00% # Request fanout histogram (Count)
system.membus.snoopFanout::min_value                0                       # Request fanout histogram (Count)
system.membus.snoopFanout::max_value                0                       # Request fanout histogram (Count)
system.membus.snoopFanout::total             19850289                       # Request fanout histogram (Count)
system.membus.power_state.pwrStateResidencyTicks::UNDEFINED 3079664187500                       # Cumulative time (in ticks) in various power states (Tick)
system.membus.reqLayer0.occupancy         31875999312                       # Layer occupancy (ticks) (Tick)
system.membus.reqLayer0.utilization               0.0                       # Layer utilization (Ratio)
system.membus.respLayer0.occupancy        52893633893                       # Layer occupancy (ticks) (Tick)
system.membus.respLayer0.utilization              0.0                       # Layer utilization (Ratio)
system.membus.snoop_filter.totRequests       39695625                       # Total number of requests made to the snoop filter. (Count)
system.membus.snoop_filter.hitSingleRequests     19845842                       # Number of requests hitting in the snoop filter with a single holder of the requested data. (Count)
system.membus.snoop_filter.hitMultiRequests            0                       # Number of requests hitting in the snoop filter with multiple (>1) holders of the requested data. (Count)
system.membus.snoop_filter.totSnoops                0                       # Total number of snoops made to the snoop filter. (Count)
system.membus.snoop_filter.hitSingleSnoops            0                       # Number of snoops hitting in the snoop filter with a single holder of the requested data. (Count)
system.membus.snoop_filter.hitMultiSnoops            0                       # Number of snoops hitting in the snoop filter with multiple (>1) holders of the requested data. (Count)
system.workload.inst.arm                            0                       # number of arm instructions executed (Count)
system.workload.inst.quiesce                        0                       # number of quiesce instructions executed (Count)

---------- End Simulation Statistics   ----------
